<additional>
  <poi x="5571.785392517224" y="6734.00081430655" id="fcd_data0" color="153,50,204" type="Edge_Match" />
  <poi x="5487.967147453455" y="6780.288200969808" id="fcd_data48" color="153,50,204" type="Edge_Match" />
  <poi x="5520.67325978633" y="6769.090175275691" id="fcd_data111" color="153,50,204" type="Edge_Match" />
  <poi x="5470.0921502041165" y="6787.50777524896" id="fcd_data112" color="153,50,204" type="Edge_Match" />
  <poi x="5481.631628530566" y="6794.55051593855" id="fcd_data113" color="153,50,204" type="Edge_Match" />
  <poi x="5480.09195400076" y="6796.726744557731" id="fcd_data181" color="153,50,204" type="Edge_Match" />
  <poi x="5492.640630840091" y="6818.265495133586" id="fcd_data182" color="153,50,204" type="Edge_Match" />
  <poi x="5466.596550015849" y="6781.833545909263" id="fcd_data183" color="153,50,204" type="Edge_Match" />
  <poi x="5469.012133569457" y="6775.234754909761" id="fcd_data184" color="153,50,204" type="Edge_Match" />
  <poi x="5521.786144077894" y="6687.905335423537" id="fcd_data187" color="153,50,204" type="Edge_Match" />
  <poi x="5587.322816608241" y="6615.4464561175555" id="fcd_data189" color="153,50,204" type="Edge_Match" />
  <poi x="5626.374767801026" y="6566.622343898751" id="fcd_data190" color="153,50,204" type="Edge_Match" />
  <poi x="5741.339226870099" y="6489.063327234238" id="fcd_data191" color="153,50,204" type="Edge_Match" />
  <poi x="5762.905217019841" y="6527.579092667438" id="fcd_data193" color="153,50,204" type="Edge_Match" />
  <poi x="5587.322816608241" y="6615.4464561175555" id="fcd_data219" color="153,50,204" type="Edge_Match" />
  <poi x="5470.0921502041165" y="6787.50777524896" id="fcd_data220" color="153,50,204" type="Edge_Match" />
  <poi x="5492.640630840091" y="6818.265495133586" id="fcd_data221" color="153,50,204" type="Edge_Match" />
  <poi x="5470.0921502041165" y="6787.50777524896" id="fcd_data224" color="153,50,204" type="Edge_Match" />
  <poi x="5492.640630840091" y="6818.265495133586" id="fcd_data250" color="153,50,204" type="Edge_Match" />
  <poi x="5470.0921502041165" y="6787.50777524896" id="fcd_data251" color="153,50,204" type="Edge_Match" />
  <poi x="5480.127314476296" y="6795.615263629705" id="fcd_data253" color="153,50,204" type="Edge_Match" />
  <poi x="5481.631628530566" y="6794.55051593855" id="fcd_data254" color="153,50,204" type="Edge_Match" />
  <poi x="5571.785392517224" y="6734.00081430655" id="fcd_data255" color="153,50,204" type="Edge_Match" />
  <poi x="5520.67325978633" y="6769.090175275691" id="fcd_data256" color="153,50,204" type="Edge_Match" />
  <poi x="5571.785392517224" y="6734.00081430655" id="fcd_data400" color="153,50,204" type="Edge_Match" />
  <poi x="5520.67325978633" y="6769.090175275691" id="fcd_data490" color="153,50,204" type="Edge_Match" />
  <poi x="5571.785392517224" y="6734.00081430655" id="fcd_data491" color="153,50,204" type="Edge_Match" />
  <poi x="5520.67325978633" y="6769.090175275691" id="fcd_data493" color="153,50,204" type="Edge_Match" />
  <poi x="5571.785392517224" y="6734.00081430655" id="fcd_data629" color="153,50,204" type="Edge_Match" />
  <poi x="5487.967147453455" y="6780.288200969808" id="fcd_data753" color="153,50,204" type="Edge_Match" />
  <poi x="5500.037083882024" y="6770.658765511587" id="fcd_data821" color="153,50,204" type="Edge_Match" />
  <poi x="5484.931253420073" y="6760.164708719589" id="fcd_data823" color="153,50,204" type="Edge_Match" />
  <poi x="5466.596550015849" y="6781.833545909263" id="fcd_data825" color="153,50,204" type="Edge_Match" />
  <poi x="5470.0921502041165" y="6787.50777524896" id="fcd_data827" color="153,50,204" type="Edge_Match" />
  <poi x="5481.631628530566" y="6794.55051593855" id="fcd_data828" color="153,50,204" type="Edge_Match" />
  <poi x="5480.09195400076" y="6796.726744557731" id="fcd_data882" color="153,50,204" type="Edge_Match" />
  <poi x="5492.640630840091" y="6818.265495133586" id="fcd_data883" color="153,50,204" type="Edge_Match" />
  <poi x="5469.012133569457" y="6775.234754909761" id="fcd_data885" color="153,50,204" type="Edge_Match" />
  <poi x="5484.931253420073" y="6760.164708719589" id="fcd_data887" color="153,50,204" type="Edge_Match" />
  <poi x="5587.322816608241" y="6615.4464561175555" id="fcd_data888" color="153,50,204" type="Edge_Match" />
  <poi x="5673.639810525579" y="6536.974342200905" id="fcd_data889" color="153,50,204" type="Edge_Match" />
  <poi x="5762.905217019841" y="6527.579092667438" id="fcd_data890" color="153,50,204" type="Edge_Match" />
  <poi x="5626.374767801026" y="6566.622343898751" id="fcd_data912" color="153,50,204" type="Edge_Match" />
  <poi x="5587.322816608241" y="6615.4464561175555" id="fcd_data914" color="153,50,204" type="Edge_Match" />
  <poi x="5550.447967014508" y="6642.08796551358" id="fcd_data915" color="153,50,204" type="Edge_Match" />
  <poi x="5500.929342170595" y="6719.507278414443" id="fcd_data916" color="153,50,204" type="Edge_Match" />
  <poi x="5484.931253420073" y="6760.164708719589" id="fcd_data917" color="153,50,204" type="Edge_Match" />
  <poi x="5492.640630840091" y="6818.265495133586" id="fcd_data918" color="153,50,204" type="Edge_Match" />
  <poi x="5470.0921502041165" y="6787.50777524896" id="fcd_data923" color="153,50,204" type="Edge_Match" />
  <poi x="5492.640630840091" y="6818.265495133586" id="fcd_data941" color="153,50,204" type="Edge_Match" />
  <poi x="5571.785392517224" y="6734.00081430655" id="fcd_data944" color="153,50,204" type="Edge_Match" />
  <poi x="5520.67325978633" y="6769.090175275691" id="fcd_data949" color="153,50,204" type="Edge_Match" />
  <poi x="5571.785392517224" y="6734.00081430655" id="fcd_data951" color="153,50,204" type="Edge_Match" />
  <poi x="5481.631628530566" y="6794.55051593855" id="fcd_data952" color="153,50,204" type="Edge_Match" />
  <poi x="5571.785392517224" y="6734.00081430655" id="fcd_data955" color="153,50,204" type="Edge_Match" />
  <poi x="5520.67325978633" y="6769.090175275691" id="fcd_data961" color="153,50,204" type="Edge_Match" />
  <poi x="5571.785392517224" y="6734.00081430655" id="fcd_data968" color="153,50,204" type="Edge_Match" />
  <poi x="5520.67325978633" y="6769.090175275691" id="fcd_data969" color="153,50,204" type="Edge_Match" />
  <poi x="5571.785392517224" y="6734.00081430655" id="fcd_data1115" color="153,50,204" type="Edge_Match" />
  <poi x="5487.967147453455" y="6780.288200969808" id="fcd_data1234" color="153,50,204" type="Edge_Match" />
  <poi x="5470.0921502041165" y="6787.50777524896" id="fcd_data1298" color="153,50,204" type="Edge_Match" />
  <poi x="5481.631628530566" y="6794.55051593855" id="fcd_data1300" color="153,50,204" type="Edge_Match" />
  <poi x="5492.640630840091" y="6818.265495133586" id="fcd_data1346" color="153,50,204" type="Edge_Match" />
  <poi x="5469.012133569457" y="6775.234754909761" id="fcd_data1347" color="153,50,204" type="Edge_Match" />
  <poi x="5510.972787955077" y="6704.250352965668" id="fcd_data1350" color="153,50,204" type="Edge_Match" />
  <poi x="5521.786144077894" y="6687.905335423537" id="fcd_data1351" color="153,50,204" type="Edge_Match" />
  <poi x="5741.339226870099" y="6489.063327234238" id="fcd_data1352" color="153,50,204" type="Edge_Match" />
  <poi x="5762.905217019841" y="6527.579092667438" id="fcd_data1353" color="153,50,204" type="Edge_Match" />
  <poi x="5626.374767801026" y="6566.622343898751" id="fcd_data1384" color="153,50,204" type="Edge_Match" />
  <poi x="5484.931253420073" y="6760.164708719589" id="fcd_data1385" color="153,50,204" type="Edge_Match" />
  <poi x="5466.596550015849" y="6781.833545909263" id="fcd_data1386" color="153,50,204" type="Edge_Match" />
  <poi x="5470.0921502041165" y="6787.50777524896" id="fcd_data1387" color="153,50,204" type="Edge_Match" />
  <poi x="5492.640630840091" y="6818.265495133586" id="fcd_data1388" color="153,50,204" type="Edge_Match" />
  <poi x="5470.0921502041165" y="6787.50777524896" id="fcd_data1397" color="153,50,204" type="Edge_Match" />
  <poi x="5492.640630840091" y="6818.265495133586" id="fcd_data1413" color="153,50,204" type="Edge_Match" />
  <poi x="5470.0921502041165" y="6787.50777524896" id="fcd_data1415" color="153,50,204" type="Edge_Match" />
  <poi x="5481.631628530566" y="6794.55051593855" id="fcd_data1416" color="153,50,204" type="Edge_Match" />
  <poi x="5762.905217019841" y="6527.579092667438" id="fcd_data1418" color="153,50,204" type="Edge_Match" />
  <poi x="5571.785392517224" y="6734.00081430655" id="fcd_data1419" color="153,50,204" type="Edge_Match" />
  <poi x="5520.67325978633" y="6769.090175275691" id="fcd_data1427" color="153,50,204" type="Edge_Match" />
  <poi x="5571.785392517224" y="6734.00081430655" id="fcd_data1429" color="153,50,204" type="Edge_Match" />
  <poi x="5481.631628530566" y="6794.55051593855" id="fcd_data1431" color="153,50,204" type="Edge_Match" />
  <poi x="5571.785392517224" y="6734.00081430655" id="fcd_data1438" color="153,50,204" type="Edge_Match" />
  <poi x="5500.037083882024" y="6770.658765511587" id="fcd_data1484" color="153,50,204" type="Edge_Match" />
  <poi x="5520.67325978633" y="6769.090175275691" id="fcd_data1485" color="153,50,204" type="Edge_Match" />
  <poi x="5487.967147453455" y="6780.288200969808" id="fcd_data1486" color="153,50,204" type="Edge_Match" />
  <poi x="5500.037083882024" y="6770.658765511587" id="fcd_data1551" color="153,50,204" type="Edge_Match" />
  <poi x="5481.631628530566" y="6794.55051593855" id="fcd_data1552" color="153,50,204" type="Edge_Match" />
  <poi x="5469.012133569457" y="6775.234754909761" id="fcd_data1603" color="153,50,204" type="Edge_Match" />
  <poi x="5568.358905508183" y="6633.757155114785" id="fcd_data1609" color="153,50,204" type="Edge_Match" />
  <poi x="5673.639810525579" y="6536.974342200905" id="fcd_data1610" color="153,50,204" type="Edge_Match" />
  <poi x="5733.675381914945" y="6498.8326546400785" id="fcd_data1611" color="153,50,204" type="Edge_Match" />
  <poi x="5762.905217019841" y="6527.579092667438" id="fcd_data1612" color="153,50,204" type="Edge_Match" />
  <poi x="5626.374767801026" y="6566.622343898751" id="fcd_data1653" color="153,50,204" type="Edge_Match" />
  <poi x="5550.447967014508" y="6642.08796551358" id="fcd_data1654" color="153,50,204" type="Edge_Match" />
  <poi x="5492.640630840091" y="6818.265495133586" id="fcd_data1655" color="153,50,204" type="Edge_Match" />
  <poi x="5470.0921502041165" y="6787.50777524896" id="fcd_data1662" color="153,50,204" type="Edge_Match" />
  <poi x="5492.640630840091" y="6818.265495133586" id="fcd_data1681" color="153,50,204" type="Edge_Match" />
  <poi x="5520.67325978633" y="6769.090175275691" id="fcd_data1683" color="153,50,204" type="Edge_Match" />
  <poi x="5571.785392517224" y="6734.00081430655" id="fcd_data1814" color="153,50,204" type="Edge_Match" />
  <poi x="5520.67325978633" y="6769.090175275691" id="fcd_data1909" color="153,50,204" type="Edge_Match" />
  <poi x="5571.785392517224" y="6734.00081430655" id="fcd_data2050" color="153,50,204" type="Edge_Match" />
  <poi x="5487.967147453455" y="6780.288200969808" id="fcd_data2187" color="153,50,204" type="Edge_Match" />
  <poi x="5500.037083882024" y="6770.658765511587" id="fcd_data2239" color="153,50,204" type="Edge_Match" />
  <poi x="5520.67325978633" y="6769.090175275691" id="fcd_data2240" color="153,50,204" type="Edge_Match" />
  <poi x="5484.931253420073" y="6760.164708719589" id="fcd_data2242" color="153,50,204" type="Edge_Match" />
  <poi x="5470.0921502041165" y="6787.50777524896" id="fcd_data2244" color="153,50,204" type="Edge_Match" />
  <poi x="5481.631628530566" y="6794.55051593855" id="fcd_data2246" color="153,50,204" type="Edge_Match" />
  <poi x="5480.861791122588" y="6795.6386301973835" id="fcd_data2305" color="153,50,204" type="Edge_Match" />
  <poi x="5469.012133569457" y="6775.234754909761" id="fcd_data2306" color="153,50,204" type="Edge_Match" />
  <poi x="5484.931253420073" y="6760.164708719589" id="fcd_data2308" color="153,50,204" type="Edge_Match" />
  <poi x="5486.965996499988" y="6742.427749276161" id="fcd_data2309" color="153,50,204" type="Edge_Match" />
  <poi x="5510.972787955077" y="6704.250352965668" id="fcd_data2310" color="153,50,204" type="Edge_Match" />
  <poi x="5587.322816608241" y="6615.4464561175555" id="fcd_data2311" color="153,50,204" type="Edge_Match" />
  <poi x="5626.374767801026" y="6566.622343898751" id="fcd_data2313" color="153,50,204" type="Edge_Match" />
  <poi x="5719.400926392409" y="6508.391414792277" id="fcd_data2314" color="153,50,204" type="Edge_Match" />
  <poi x="5741.339226870099" y="6489.063327234238" id="fcd_data2315" color="153,50,204" type="Edge_Match" />
  <poi x="5762.905217019841" y="6527.579092667438" id="fcd_data2318" color="153,50,204" type="Edge_Match" />
  <poi x="5510.972787955077" y="6704.250352965668" id="fcd_data2342" color="153,50,204" type="Edge_Match" />
  <poi x="5492.640630840091" y="6818.265495133586" id="fcd_data2343" color="153,50,204" type="Edge_Match" />
  <poi x="5470.0921502041165" y="6787.50777524896" id="fcd_data2354" color="153,50,204" type="Edge_Match" />
  <poi x="5492.640630840091" y="6818.265495133586" id="fcd_data2379" color="153,50,204" type="Edge_Match" />
  <poi x="5571.785392517224" y="6734.00081430655" id="fcd_data2382" color="153,50,204" type="Edge_Match" />
  <poi x="5520.67325978633" y="6769.090175275691" id="fcd_data2386" color="153,50,204" type="Edge_Match" />
  <poi x="5571.785392517224" y="6734.00081430655" id="fcd_data2394" color="153,50,204" type="Edge_Match" />
  <poi x="5481.631628530566" y="6794.55051593855" id="fcd_data2397" color="153,50,204" type="Edge_Match" />
  <poi x="5571.785392517224" y="6734.00081430655" id="fcd_data2402" color="153,50,204" type="Edge_Match" />
  <poi x="5520.67325978633" y="6769.090175275691" id="fcd_data2417" color="153,50,204" type="Edge_Match" />
  <poi x="5571.785392517224" y="6734.00081430655" id="fcd_data2420" color="153,50,204" type="Edge_Match" />
  <poi x="5470.0921502041165" y="6787.50777524896" id="fcd_data2424" color="153,50,204" type="Edge_Match" />
  <poi x="5481.631628530566" y="6794.55051593855" id="fcd_data2426" color="153,50,204" type="Edge_Match" />
  <poi x="5571.785392517224" y="6734.00081430655" id="fcd_data2432" color="153,50,204" type="Edge_Match" />
  <poi x="5520.67325978633" y="6769.090175275691" id="fcd_data2433" color="153,50,204" type="Edge_Match" />
  <poi x="5571.785392517224" y="6734.00081430655" id="fcd_data2577" color="153,50,204" type="Edge_Match" />
  <poi x="5520.67325978633" y="6769.090175275691" id="fcd_data2691" color="153,50,204" type="Edge_Match" />
  <poi x="5500.037083882024" y="6770.658765511587" id="fcd_data2692" color="153,50,204" type="Edge_Match" />
  <poi x="5487.967147453455" y="6780.288200969808" id="fcd_data2694" color="153,50,204" type="Edge_Match" />
  <poi x="5470.0921502041165" y="6787.50777524896" id="fcd_data2756" color="153,50,204" type="Edge_Match" />
  <poi x="5481.631628530566" y="6794.55051593855" id="fcd_data2757" color="153,50,204" type="Edge_Match" />
  <poi x="5480.127314476296" y="6795.615263629705" id="fcd_data2813" color="153,50,204" type="Edge_Match" />
  <poi x="5492.640630840091" y="6818.265495133586" id="fcd_data2814" color="153,50,204" type="Edge_Match" />
  <poi x="5469.012133569457" y="6775.234754909761" id="fcd_data2815" color="153,50,204" type="Edge_Match" />
  <poi x="5486.965996499988" y="6742.427749276161" id="fcd_data2818" color="153,50,204" type="Edge_Match" />
  <poi x="5673.639810525579" y="6536.974342200905" id="fcd_data2819" color="153,50,204" type="Edge_Match" />
  <poi x="5719.400926392409" y="6508.391414792277" id="fcd_data2820" color="153,50,204" type="Edge_Match" />
  <poi x="5741.339226870099" y="6489.063327234238" id="fcd_data2821" color="153,50,204" type="Edge_Match" />
  <poi x="5762.905217019841" y="6527.579092667438" id="fcd_data2822" color="153,50,204" type="Edge_Match" />
  <poi x="5510.972787955077" y="6704.250352965668" id="fcd_data2845" color="153,50,204" type="Edge_Match" />
  <poi x="5492.640630840091" y="6818.265495133586" id="fcd_data2846" color="153,50,204" type="Edge_Match" />
  <poi x="5470.0921502041165" y="6787.50777524896" id="fcd_data2854" color="153,50,204" type="Edge_Match" />
  <poi x="5571.785392517224" y="6734.00081430655" id="fcd_data2879" color="153,50,204" type="Edge_Match" />
  <poi x="5520.67325978633" y="6769.090175275691" id="fcd_data2891" color="153,50,204" type="Edge_Match" />
  <poi x="5571.785392517224" y="6734.00081430655" id="fcd_data2894" color="153,50,204" type="Edge_Match" />
  <poi x="5492.640630840091" y="6818.265495133586" id="fcd_data2900" color="153,50,204" type="Edge_Match" />
  <poi x="5481.631628530566" y="6794.55051593855" id="fcd_data2901" color="153,50,204" type="Edge_Match" />
  <poi x="5762.905217019841" y="6527.579092667438" id="fcd_data2905" color="153,50,204" type="Edge_Match" />
  <poi x="5571.785392517224" y="6734.00081430655" id="fcd_data2906" color="153,50,204" type="Edge_Match" />
  <poi x="5520.67325978633" y="6769.090175275691" id="fcd_data2908" color="153,50,204" type="Edge_Match" />
  <poi x="5571.785392517224" y="6734.00081430655" id="fcd_data3049" color="153,50,204" type="Edge_Match" />
  <poi x="5487.967147453455" y="6780.288200969808" id="fcd_data3165" color="153,50,204" type="Edge_Match" />
  <poi x="5470.0921502041165" y="6787.50777524896" id="fcd_data3224" color="153,50,204" type="Edge_Match" />
  <poi x="5481.631628530566" y="6794.55051593855" id="fcd_data3225" color="153,50,204" type="Edge_Match" />
  <poi x="5469.012133569457" y="6775.234754909761" id="fcd_data3284" color="153,50,204" type="Edge_Match" />
  <poi x="5486.965996499988" y="6742.427749276161" id="fcd_data3285" color="153,50,204" type="Edge_Match" />
  <poi x="5550.447967014508" y="6642.08796551358" id="fcd_data3286" color="153,50,204" type="Edge_Match" />
  <poi x="5741.339226870099" y="6489.063327234238" id="fcd_data3287" color="153,50,204" type="Edge_Match" />
  <poi x="5762.905217019841" y="6527.579092667438" id="fcd_data3288" color="153,50,204" type="Edge_Match" />
  <poi x="5673.639810525579" y="6536.974342200905" id="fcd_data3314" color="153,50,204" type="Edge_Match" />
  <poi x="5550.447967014508" y="6642.08796551358" id="fcd_data3315" color="153,50,204" type="Edge_Match" />
  <poi x="5492.640630840091" y="6818.265495133586" id="fcd_data3316" color="153,50,204" type="Edge_Match" />
  <poi x="5470.0921502041165" y="6787.50777524896" id="fcd_data3324" color="153,50,204" type="Edge_Match" />
  <poi x="5492.640630840091" y="6818.265495133586" id="fcd_data3342" color="153,50,204" type="Edge_Match" />
  <poi x="5571.785392517224" y="6734.00081430655" id="fcd_data3345" color="153,50,204" type="Edge_Match" />
  <poi x="5481.631628530566" y="6794.55051593855" id="fcd_data3346" color="153,50,204" type="Edge_Match" />
  <poi x="5571.785392517224" y="6734.00081430655" id="fcd_data3348" color="153,50,204" type="Edge_Match" />
  <poi x="5520.67325978633" y="6769.090175275691" id="fcd_data3363" color="153,50,204" type="Edge_Match" />
  <poi x="5571.785392517224" y="6734.00081430655" id="fcd_data3373" color="153,50,204" type="Edge_Match" />
  <poi x="5520.67325978633" y="6769.090175275691" id="fcd_data3375" color="153,50,204" type="Edge_Match" />
  <poi x="5571.785392517224" y="6734.00081430655" id="fcd_data3499" color="153,50,204" type="Edge_Match" />
  <poi x="5487.967147453455" y="6780.288200969808" id="fcd_data3625" color="153,50,204" type="Edge_Match" />
  <poi x="5481.631628530566" y="6794.55051593855" id="fcd_data3685" color="153,50,204" type="Edge_Match" />
  <poi x="5478.862432316528" y="6812.264111278579" id="fcd_data3742" color="153,50,204" type="Edge_Match" />
  <poi x="5481.631628530566" y="6794.55051593855" id="fcd_data3743" color="153,50,204" type="Edge_Match" />
  <poi x="5466.596550015849" y="6781.833545909263" id="fcd_data3745" color="153,50,204" type="Edge_Match" />
  <poi x="5469.012133569457" y="6775.234754909761" id="fcd_data3746" color="153,50,204" type="Edge_Match" />
  <poi x="5486.965996499988" y="6742.427749276161" id="fcd_data3748" color="153,50,204" type="Edge_Match" />
  <poi x="5550.447967014508" y="6642.08796551358" id="fcd_data3749" color="153,50,204" type="Edge_Match" />
  <poi x="5626.374767801026" y="6566.622343898751" id="fcd_data3750" color="153,50,204" type="Edge_Match" />
  <poi x="5762.905217019841" y="6527.579092667438" id="fcd_data3751" color="153,50,204" type="Edge_Match" />
  <poi x="5469.012133569457" y="6775.234754909761" id="fcd_data3772" color="153,50,204" type="Edge_Match" />
  <poi x="5470.0921502041165" y="6787.50777524896" id="fcd_data3773" color="153,50,204" type="Edge_Match" />
  <poi x="5492.640630840091" y="6818.265495133586" id="fcd_data3774" color="153,50,204" type="Edge_Match" />
  <poi x="5470.0921502041165" y="6787.50777524896" id="fcd_data3786" color="153,50,204" type="Edge_Match" />
  <poi x="5492.640630840091" y="6818.265495133586" id="fcd_data3807" color="153,50,204" type="Edge_Match" />
  <poi x="5571.785392517224" y="6734.00081430655" id="fcd_data3811" color="153,50,204" type="Edge_Match" />
  <poi x="5470.0921502041165" y="6787.50777524896" id="fcd_data3813" color="153,50,204" type="Edge_Match" />
  <poi x="5492.640630840091" y="6818.265495133586" id="fcd_data3815" color="153,50,204" type="Edge_Match" />
  <poi x="5481.631628530566" y="6794.55051593855" id="fcd_data3816" color="153,50,204" type="Edge_Match" />
  <poi x="5520.67325978633" y="6769.090175275691" id="fcd_data3819" color="153,50,204" type="Edge_Match" />
  <poi x="5571.785392517224" y="6734.00081430655" id="fcd_data3961" color="153,50,204" type="Edge_Match" />
  <poi x="5520.67325978633" y="6769.090175275691" id="fcd_data4063" color="153,50,204" type="Edge_Match" />
  <poi x="5571.785392517224" y="6734.00081430655" id="fcd_data4068" color="153,50,204" type="Edge_Match" />
  <poi x="5530.2297913124785" y="6746.029546565376" id="fcd_data4108" color="153,50,204" type="Edge_Match" />
  <poi x="5487.967147453455" y="6780.288200969808" id="fcd_data4109" color="153,50,204" type="Edge_Match" />
  <poi x="5466.596550015849" y="6781.833545909263" id="fcd_data4162" color="153,50,204" type="Edge_Match" />
  <poi x="5481.631628530566" y="6794.55051593855" id="fcd_data4163" color="153,50,204" type="Edge_Match" />
  <poi x="5500.929342170595" y="6719.507278414443" id="fcd_data4210" color="153,50,204" type="Edge_Match" />
  <poi x="5587.322816608241" y="6615.4464561175555" id="fcd_data4211" color="153,50,204" type="Edge_Match" />
  <poi x="5673.639810525579" y="6536.974342200905" id="fcd_data4212" color="153,50,204" type="Edge_Match" />
  <poi x="5733.675381914945" y="6498.8326546400785" id="fcd_data4213" color="153,50,204" type="Edge_Match" />
  <poi x="5762.905217019841" y="6527.579092667438" id="fcd_data4215" color="153,50,204" type="Edge_Match" />
  <poi x="5626.374767801026" y="6566.622343898751" id="fcd_data4245" color="153,50,204" type="Edge_Match" />
  <poi x="5587.322816608241" y="6615.4464561175555" id="fcd_data4247" color="153,50,204" type="Edge_Match" />
  <poi x="5500.929342170595" y="6719.507278414443" id="fcd_data4248" color="153,50,204" type="Edge_Match" />
  <poi x="5469.012133569457" y="6775.234754909761" id="fcd_data4250" color="153,50,204" type="Edge_Match" />
  <poi x="5492.640630840091" y="6818.265495133586" id="fcd_data4251" color="153,50,204" type="Edge_Match" />
  <poi x="5470.0921502041165" y="6787.50777524896" id="fcd_data4261" color="153,50,204" type="Edge_Match" />
  <poi x="5492.640630840091" y="6818.265495133586" id="fcd_data4280" color="153,50,204" type="Edge_Match" />
  <poi x="5571.785392517224" y="6734.00081430655" id="fcd_data4283" color="153,50,204" type="Edge_Match" />
  <poi x="5520.67325978633" y="6769.090175275691" id="fcd_data4297" color="153,50,204" type="Edge_Match" />
  <poi x="5571.785392517224" y="6734.00081430655" id="fcd_data4303" color="153,50,204" type="Edge_Match" />
  <poi x="5520.67325978633" y="6769.090175275691" id="fcd_data4304" color="153,50,204" type="Edge_Match" />
  <poi x="5571.785392517224" y="6734.00081430655" id="fcd_data4454" color="153,50,204" type="Edge_Match" />
  <poi x="5487.967147453455" y="6780.288200969808" id="fcd_data4580" color="153,50,204" type="Edge_Match" />
  <poi x="5500.037083882024" y="6770.658765511587" id="fcd_data4636" color="153,50,204" type="Edge_Match" />
  <poi x="5520.67325978633" y="6769.090175275691" id="fcd_data4637" color="153,50,204" type="Edge_Match" />
  <poi x="5500.037083882024" y="6770.658765511587" id="fcd_data4638" color="153,50,204" type="Edge_Match" />
  <poi x="5484.931253420073" y="6760.164708719589" id="fcd_data4639" color="153,50,204" type="Edge_Match" />
  <poi x="5470.0921502041165" y="6787.50777524896" id="fcd_data4640" color="153,50,204" type="Edge_Match" />
  <poi x="5481.631628530566" y="6794.55051593855" id="fcd_data4641" color="153,50,204" type="Edge_Match" />
  <poi x="5469.012133569457" y="6775.234754909761" id="fcd_data4693" color="153,50,204" type="Edge_Match" />
  <poi x="5741.339226870099" y="6489.063327234238" id="fcd_data4696" color="153,50,204" type="Edge_Match" />
  <poi x="5762.905217019841" y="6527.579092667438" id="fcd_data4697" color="153,50,204" type="Edge_Match" />
  <poi x="5562.624419909436" y="6629.124215154909" id="fcd_data4727" color="153,50,204" type="Edge_Match" />
  <poi x="5550.447967014508" y="6642.08796551358" id="fcd_data4728" color="153,50,204" type="Edge_Match" />
  <poi x="5470.0921502041165" y="6787.50777524896" id="fcd_data4729" color="153,50,204" type="Edge_Match" />
  <poi x="5492.640630840091" y="6818.265495133586" id="fcd_data4730" color="153,50,204" type="Edge_Match" />
  <poi x="5470.0921502041165" y="6787.50777524896" id="fcd_data4731" color="153,50,204" type="Edge_Match" />
  <poi x="5492.640630840091" y="6818.265495133586" id="fcd_data4749" color="153,50,204" type="Edge_Match" />
  <poi x="5470.0921502041165" y="6787.50777524896" id="fcd_data4752" color="153,50,204" type="Edge_Match" />
  <poi x="5481.631628530566" y="6794.55051593855" id="fcd_data4754" color="153,50,204" type="Edge_Match" />
  <poi x="5571.785392517224" y="6734.00081430655" id="fcd_data4756" color="153,50,204" type="Edge_Match" />
  <poi x="5520.67325978633" y="6769.090175275691" id="fcd_data4771" color="153,50,204" type="Edge_Match" />
  <poi x="5571.785392517224" y="6734.00081430655" id="fcd_data4774" color="153,50,204" type="Edge_Match" />
  <poi x="5530.2297913124785" y="6746.029546565376" id="fcd_data4824" color="153,50,204" type="Edge_Match" />
  <poi x="5500.037083882024" y="6770.658765511587" id="fcd_data4825" color="153,50,204" type="Edge_Match" />
  <poi x="5484.931253420073" y="6760.164708719589" id="fcd_data4828" color="153,50,204" type="Edge_Match" />
  <poi x="5487.967147453455" y="6780.288200969808" id="fcd_data4829" color="153,50,204" type="Edge_Match" />
  <poi x="5520.67325978633" y="6769.090175275691" id="fcd_data4902" color="153,50,204" type="Edge_Match" />
  <poi x="5500.037083882024" y="6770.658765511587" id="fcd_data4904" color="153,50,204" type="Edge_Match" />
  <poi x="5484.931253420073" y="6760.164708719589" id="fcd_data4905" color="153,50,204" type="Edge_Match" />
  <poi x="5470.0921502041165" y="6787.50777524896" id="fcd_data4907" color="153,50,204" type="Edge_Match" />
  <poi x="5481.631628530566" y="6794.55051593855" id="fcd_data4908" color="153,50,204" type="Edge_Match" />
  <poi x="5478.862432316528" y="6812.264111278579" id="fcd_data4977" color="153,50,204" type="Edge_Match" />
  <poi x="5481.631628530566" y="6794.55051593855" id="fcd_data4978" color="153,50,204" type="Edge_Match" />
  <poi x="5469.012133569457" y="6775.234754909761" id="fcd_data4980" color="153,50,204" type="Edge_Match" />
  <poi x="5568.358905508183" y="6633.757155114785" id="fcd_data4981" color="153,50,204" type="Edge_Match" />
  <poi x="5626.374767801026" y="6566.622343898751" id="fcd_data4982" color="153,50,204" type="Edge_Match" />
  <poi x="5762.905217019841" y="6527.579092667438" id="fcd_data4984" color="153,50,204" type="Edge_Match" />
  <poi x="5550.447967014508" y="6642.08796551358" id="fcd_data5008" color="153,50,204" type="Edge_Match" />
  <poi x="5521.786144077894" y="6687.905335423537" id="fcd_data5009" color="153,50,204" type="Edge_Match" />
  <poi x="5486.965996499988" y="6742.427749276161" id="fcd_data5010" color="153,50,204" type="Edge_Match" />
  <poi x="5484.931253420073" y="6760.164708719589" id="fcd_data5012" color="153,50,204" type="Edge_Match" />
  <poi x="5470.0921502041165" y="6787.50777524896" id="fcd_data5013" color="153,50,204" type="Edge_Match" />
  <poi x="5492.640630840091" y="6818.265495133586" id="fcd_data5014" color="153,50,204" type="Edge_Match" />
  <poi x="5470.0921502041165" y="6787.50777524896" id="fcd_data5019" color="153,50,204" type="Edge_Match" />
  <poi x="5481.631628530566" y="6794.55051593855" id="fcd_data5041" color="153,50,204" type="Edge_Match" />
  <poi x="5571.785392517224" y="6734.00081430655" id="fcd_data5045" color="153,50,204" type="Edge_Match" />
  <poi x="5520.67325978633" y="6769.090175275691" id="fcd_data5046" color="153,50,204" type="Edge_Match" />
  <poi x="5571.785392517224" y="6734.00081430655" id="fcd_data5189" color="153,50,204" type="Edge_Match" />
  <poi x="5520.67325978633" y="6769.090175275691" id="fcd_data5273" color="153,50,204" type="Edge_Match" />
  <poi x="5571.785392517224" y="6734.00081430655" id="fcd_data5420" color="153,50,204" type="Edge_Match" />
  <poi x="5500.037083882024" y="6770.658765511587" id="fcd_data5542" color="153,50,204" type="Edge_Match" />
  <poi x="5487.967147453455" y="6780.288200969808" id="fcd_data5543" color="153,50,204" type="Edge_Match" />
  <poi x="5500.037083882024" y="6770.658765511587" id="fcd_data5605" color="153,50,204" type="Edge_Match" />
  <poi x="5470.0921502041165" y="6787.50777524896" id="fcd_data5606" color="153,50,204" type="Edge_Match" />