<?xml version="1.0" encoding="UTF-8"?>

<!-- generated on 2023-03-01 10:57:35 by Eclipse SUMO netedit Version 1.16.0
-->

<additional xmlns:xsi="http://www.w3.org/2001/XMLSchema-instance" xsi:noNamespaceSchemaLocation="http://sumo.dlr.de/xsd/additional_file.xsd">
    <!-- StoppingPlaces -->
    <busStop id="101" name="Klinik - Dr. Reiser" lane="233673410#0_2" startPos="11.41" endPos="21.41">
        <param key="DHID" value="de:09161:7567:0:1"/>
    </busStop>
    <busStop id="102" name="Klinik - Dr. Reiser" lane="-233673410#0_2" startPos="3.09" endPos="13.09">
        <param key="DHID" value="de:09161:7567:0:2"/>
    </busStop>
    <busStop id="103401" name="Altwasserweg" lane="-164051425#2_1" startPos="144.43" endPos="170.62">
        <param key="DHID" value="de:09161:1034:0:1"/>
    </busStop>
    <busStop id="103402" name="Altwasserweg " lane="164051425#2_1" startPos="12.42" endPos="38.42" friendlyPos="true">
        <param key="DHID" value="de:09161:1034:0:1"/>
    </busStop>
    <busStop id="104201" name="Bezirkssportanlage Nord-West" lane="24634510#21_1" startPos="2.43" endPos="28.43" friendlyPos="true">
        <param key="DHID" value="de:09161:8956:0:2"/>
    </busStop>
    <busStop id="104203" name="Bezirkssportanlage Nord-West" lane="201238726#0_0" startPos="7.91" endPos="17.91">
        <param key="DHID" value="de:09161:8956:0:1"/>
    </busStop>
    <busStop id="10599" name="Boschstraße" lane="-22486129#0_1" startPos="132.98" endPos="158.98" friendlyPos="true">
        <param key="DHID" value="de:09161:8926:0:2"/>
    </busStop>
    <busStop id="10801" name="Breslauer Straße" lane="201953161#7_1" startPos="77.53" endPos="103.53" friendlyPos="true">
        <param key="DHID" value="de:09161:8785:0:1"/>
    </busStop>
    <busStop id="10802" name="Breslauer Straße" lane="-115881043#9_1" startPos="5.62" endPos="31.62" friendlyPos="true">
        <param key="DHID" value="de:09161:8785:0:2"/>
    </busStop>
    <busStop id="10902" name="Brodmühlweg" lane="-173169611#2_2" startPos="94.85" endPos="104.85" friendlyPos="true">
        <param key="DHID" value="de:09161:109:0:2"/>
    </busStop>
    <busStop id="11001" name="Brückenkopf" lane="-32923867#4_2" startPos="5.45" endPos="31.45" friendlyPos="true">
        <param key="DHID" value="de:09161:7997:0:2"/>
    </busStop>
    <busStop id="11002" name="Brückenkopf" lane="32923867#4_2" startPos="9.92" endPos="35.92" friendlyPos="true">
        <param key="DHID" value="de:09161:7997:0:2"/>
    </busStop>
    <busStop id="11301" name="Buchnerstraße" lane="201926265#5_1" startPos="0.30" endPos="26.30" friendlyPos="true">
        <param key="DHID" value="de:09161:113:0:2"/>
    </busStop>
    <busStop id="11302" name="Buchnerstraße" lane="-201926265#5_1" startPos="47.20" endPos="73.20" friendlyPos="true">
        <param key="DHID" value="de:09161:113:0:1"/>
    </busStop>
    <busStop id="11499" name="Bunsenstraße " lane="-305496616#3_1" startPos="20.43" endPos="46.43" friendlyPos="true">
        <param key="DHID" value="de:09161:114:0:10"/>
    </busStop>
    <busStop id="118201" name="Lenting, Blockhaus" lane="11940927#5_1" startPos="124.73" endPos="150.73" friendlyPos="true">
        <param key="DHID" value="de:09161:7485:0:1"/>
    </busStop>
    <busStop id="118202" name="Lenting, Blockhaus" lane="-11940927#5_1" startPos="404.01" endPos="430.01" friendlyPos="true">
        <param key="DHID" value="de:09161:7485:0:1"/>
    </busStop>
    <busStop id="12601" name="Linnestraße" lane="-233675413#3_2" startPos="56.92" endPos="66.92" friendlyPos="true">
        <param key="DHID" value="de:09161:7688:0:2"/>
    </busStop>
    <busStop id="12602" name="Buxheimer Weg" lane="233675413#3_2" startPos="8.96" endPos="18.96" friendlyPos="true">
        <param key="DHID" value="de:09161:7688:0:1"/>
    </busStop>
    <busStop id="12701" name="Canisiusstraße" lane="-201286890#6_1" startPos="15.57" endPos="41.57" friendlyPos="true">
        <param key="DHID" value="de:09161:127:0:2"/>
    </busStop>
    <busStop id="12702" name="Canisiusstraße" lane="201286890#6_1" startPos="23.75" endPos="49.75" friendlyPos="true">
        <param key="DHID" value="de:09161:127:0:1"/>
    </busStop>
    <busStop id="12901" name="Christoph-Scheiner-Gymnasium" lane="-51856496#0_2" startPos="24.53" endPos="34.53">
        <param key="DHID" value="de:09161:7980:0:1"/>
    </busStop>
    <busStop id="12902" name="Christoph-Scheiner-Gymnasium" lane="390282481_2" startPos="16.88" endPos="26.88">
        <param key="DHID" value="de:09161:7980:0:2"/>
    </busStop>
    <busStop id="13201" name="Degenhartstraße" lane="-18813598#2_2" startPos="68.75" endPos="78.75">
        <param key="Busbucht" value="ja"/>
        <param key="DHID" value="de:09161:8030:0:1"/>
    </busStop>
    <busStop id="13202" name="Degenhartstraße" lane="18813598#1_2" startPos="24.79" endPos="34.79">
        <param key="DHID" value="de:09161:8030:0:2"/>
    </busStop>
    <busStop id="13401" name="Kösching-Desching, Raffineriesiedlung " lane="-204095914#0_1" startPos="48.47" endPos="74.47" friendlyPos="true">
        <param key="Busbucht" value="ja"/>
        <param key="DHID" value="de:09161:7423:0:1"/>
    </busStop>
    <busStop id="13402" name="Kösching-Desching, Raffineriesiedlung " lane="204095914#0_1" startPos="100.03" endPos="126.03" friendlyPos="true">
        <param key="Busbucht" value="ja"/>
        <param key="DHID" value="de:09161:7423:0:1"/>
    </busStop>
    <busStop id="13501" name="Deschinger Straße " lane="25638761#0_1" startPos="6.98" endPos="19.98" friendlyPos="true">
        <param key="DHID" value="de:09161:8796:0:2"/>
    </busStop>
    <busStop id="13502" name="Deschinger Straße" lane="-39861708#1_2" startPos="5.34" endPos="15.34" friendlyPos="true">
        <param key="DHID" value="de:09161:8796:0:2"/>
    </busStop>
    <busStop id="13702" name="Dr.-Maier-Straße" lane="-391029011#3_1" startPos="0.00" endPos="13.00" friendlyPos="true">
        <param key="DHID" value="de:09161:137:0:2"/>
    </busStop>
    <busStop id="145901" name="E" lane="-320733910#1_2" startPos="64.14" endPos="74.14">
        <param key="DHID" value="de:09161:7526:0:1"/>
    </busStop>
    <busStop id="145902" name="Audi - GVZ, Halle H" lane="-710645371#5_0" startPos="106.35" endPos="116.35">
        <param key="DHID" value="de:09161:7526:0:2"/>
    </busStop>
    <busStop id="146701" name="Technische Hochschule" lane="-145069303#4_1" startPos="21.28" endPos="31.28">
        <param key="DHID" value="de:09161:7547:0:2"/>
    </busStop>
    <busStop id="146702" name="Technische Hochschule" lane="145069303#4_1" startPos="18.83" endPos="28.83">
        <param key="DHID" value="de:09161:7533:0:4"/>
    </busStop>
    <busStop id="147301" name="Wielandstraße" lane="-29027727#9_2" startPos="10.78" endPos="20.78">
        <param key="DHID" value="de:09161:7535:0:1"/>
    </busStop>
    <busStop id="147302" name="Wielandstraße" lane="29027727#9_2" startPos="65.42" endPos="75.42">
        <param key="DHID" value="de:09161:7535:0:1"/>
    </busStop>
    <busStop id="14798" name="Effnerstraße " lane="-23622107#3_1" startPos="7.31" endPos="33.31" friendlyPos="true">
        <param key="DHID" value="de:09161:8782:0:1"/>
    </busStop>
    <busStop id="14799" name="Effnerstraße " lane="23622107#4_1" startPos="6.24" endPos="32.24" friendlyPos="true">
        <param key="DHID" value="de:09161:8782:0:2"/>
    </busStop>
    <busStop id="148199" name="Existenzgründerzentrum" lane="-23258631#5_1" startPos="22.39" endPos="32.39">
        <param key="DHID" value="de:09161:2907:0:1"/>
    </busStop>
    <busStop id="148301" name="Audi - GVZ, Halle G" lane="-320733909#1_2" startPos="4.32" endPos="14.32">
        <param key="DHID" value="de:09161:7527:0:1"/>
    </busStop>
    <busStop id="148302" name="Audi - GVZ, Halle G" lane="320733909#1_2" startPos="19.69" endPos="29.69">
        <param key="DHID" value="de:09161:7527:0:1"/>
    </busStop>
    <busStop id="14899" name="Egerlandstraße" lane="140834249#8_1" startPos="79.94" endPos="105.95" friendlyPos="true">
        <param key="DHID" value="de:09161:148:0:99"/>
    </busStop>
    <busStop id="149299" name="Audi - GVZ, Halle O" lane="98323002#3_0" startPos="90.66" endPos="105.18">
        <param key="DHID" value="de:09161:1492:0:99"/>
    </busStop>
    <busStop id="156198" name="Schwäblstraße" lane="-48742425#3_2" startPos="59.79" endPos="75.09">
        <param key="DHID" value="de:09161:1561:0:98"/>
    </busStop>
    <busStop id="156199" name="Schwäblstraße" lane="48742425#3_2" startPos="34.13" endPos="50.40">
        <param key="Busbucht" value="ja"/>
        <param key="DHID" value="de:09161:1561:0:99"/>
    </busStop>
    <busStop id="156301" name="Friedhof, Oberhaunstadt " lane="25377287#7_1" startPos="72.34" endPos="98.34" friendlyPos="true">
        <param key="DHID" value="de:09161:7538:0:1"/>
    </busStop>
    <busStop id="156302" name="Friedhof, Oberhaunstadt " lane="-32203888#1_1" startPos="35.56" endPos="61.56" friendlyPos="true">
        <param key="DHID" value="de:09161:7538:0:2"/>
    </busStop>
    <busStop id="156401" name="Röntgenstraße" lane="25377287#3_1" startPos="2.47" endPos="28.47" friendlyPos="true">
        <param key="DHID" value="de:09161:7537:0:1"/>
    </busStop>
    <busStop id="156402" name="Röntgenstraße" lane="-25377287#2_1" startPos="0.00" endPos="16.91" friendlyPos="true">
        <param key="DHID" value="de:09161:7537:0:2"/>
    </busStop>
    <busStop id="156501" name="Nobelstraße" lane="29459180#1_1" startPos="155.45" endPos="181.45" friendlyPos="true">
        <param key="Busbucht" value="ja"/>
        <param key="DHID" value="de:09161:7536:0:1"/>
    </busStop>
    <busStop id="156502" name="Nobelstraße" lane="-32140444#3_1" startPos="83.24" endPos="109.24" friendlyPos="true">
        <param key="Busbucht" value="ja"/>
        <param key="DHID" value="de:09161:7536:0:2"/>
    </busStop>
    <busStop id="157401" name="St. Markus" lane="266607804#1_2" startPos="55.10" endPos="65.10" friendlyPos="true">
        <param key="DHID" value="de:09161:7984:0:3"/>
    </busStop>
    <busStop id="157402" name="St. Markus" lane="-266607803#1_2" startPos="49.31" endPos="59.31" friendlyPos="true">
        <param key="DHID" value="de:09161:7984:0:4"/>
    </busStop>
    <busStop id="159401" name="Audi - Tradition" lane="-320733911#0_2" startPos="18.27" endPos="28.27">
        <param key="DHID" value="de:09161:7525:0:1"/>
    </busStop>
    <busStop id="159402" name="Audi - Tradition" lane="320733908_2" startPos="12.99" endPos="27.35">
        <param key="DHID" value="de:09161:7525:0:2"/>
    </busStop>
    <busStop id="162401" name="Donautherme" lane="-164051438#0.17_2" startPos="30.82" endPos="56.82" friendlyPos="true">
        <param key="DHID" value="de:09161:1624:0:1"/>
    </busStop>
    <busStop id="162402" name="Donautherme" lane="164051438#0_2" startPos="41.20" endPos="67.20" friendlyPos="true">
        <param key="DHID" value="de:09161:1624:0:2"/>
    </busStop>
    <busStop id="162598" name="Saturn-Arena " lane="141058765_2" startPos="18.30" endPos="44.30" friendlyPos="true">
        <param key="Busbucht" value="ja"/>
        <param key="DHID" value="de:09161:1625:0:98"/>
    </busStop>
    <busStop id="162599" name="Saturn-Arena " lane="4268816#0_2" startPos="37.15" endPos="63.15" friendlyPos="true">
        <param key="Busbucht" value="ja"/>
        <param key="DHID" value="de:09161:1625:0:99"/>
    </busStop>
    <busStop id="162601" name="Liegnitzer Straße " lane="201953161#0_1" startPos="13.55" endPos="39.55" friendlyPos="true">
        <param key="Busbucht" value="ja"/>
        <param key="DHID" value="de:09161:8784:0:1"/>
    </busStop>
    <busStop id="162602" name="Liegnitzer Straße " lane="-140834255#1_1" startPos="31.39" endPos="57.39" friendlyPos="true">
        <param key="DHID" value="de:09161:1626:0:3"/>
    </busStop>
    <busStop id="162603" name="Liegnitzer Straße " lane="140834255#1_1" startPos="1.74" endPos="27.74" friendlyPos="true">
        <param key="DHID" value="de:09161:8784:0:2"/>
    </busStop>
    <busStop id="164801" name="St. Anton" lane="26339476#1_1" startPos="13.10" endPos="23.10">
        <param key="DHID" value="de:09161:1648:0:3"/>
    </busStop>
    <busStop id="164802" name="St. Anton " lane="247392223_1" startPos="0.00" endPos="25.11" friendlyPos="true">
        <param key="DHID" value="de:09161:7983:0:2"/>
    </busStop>
    <busStop id="164803" name="St. Anton" lane="200949176#0_2" startPos="15.90" endPos="25.90">
        <param key="DHID" value="de:09161:1648:0:3"/>
    </busStop>
    <busStop id="16501" name="Eigenheimstraße " lane="-40623117#1_2" startPos="0.00" endPos="23.38" friendlyPos="true">
        <param key="DHID" value="de:09161:8800:0:1"/>
    </busStop>
    <busStop id="16502" name="Eigenheimstraße" lane="391208988_2" startPos="12.85" endPos="22.85">
        <param key="DHID" value="de:09161:8800:0:2"/>
    </busStop>
    <busStop id="167301" name="Nordbahnhof Ost" lane="29027727#0_2" startPos="16.06" endPos="30.59">
        <param key="DHID" value="de:09161:7534:0:1"/>
    </busStop>
    <busStop id="167302" name="Nordbahnhof Ost" lane="-29027727#0_2" startPos="9.90" endPos="24.65">
        <param key="DHID" value="de:09161:7534:0:2"/>
    </busStop>
    <busStop id="167799" name="Ingolstadt Village" lane="25623134#0_1" startPos="0.00" endPos="13.83" friendlyPos="true">
        <param key="DHID" value="de:09161:1677:0:99"/>
    </busStop>
    <busStop id="168101" name="Frühlingstraße" lane="24970784#5_2" startPos="13.37" endPos="23.37">
        <param key="DHID" value="de:09161:7428:0:1"/>
    </busStop>
    <busStop id="168102" name="Frühlingstraße" lane="-24970784#3_2" startPos="10.94" endPos="20.94">
        <param key="DHID" value="de:09161:7428:0:2"/>
    </busStop>
    <busStop id="173101" name="Speckweg" lane="675757785#2_1" startPos="42.60" endPos="75.03" friendlyPos="true">
        <param key="DHID" value="de:09161:1731:0:1"/>
    </busStop>
    <busStop id="173102" name="Speckweg" lane="-675757785#3_1" startPos="181.90" endPos="207.90" friendlyPos="true">
        <param key="DHID" value="de:09161:1731:0:2"/>
    </busStop>
    <busStop id="17901" name="Eriagstraße" lane="146973214#11_0" startPos="0.00" endPos="14.16" friendlyPos="true">
        <param key="DHID" value="de:09161:179:0:1"/>
    </busStop>
    <busStop id="17902" name="Eriagstraße" lane="-146973214#9_0" startPos="0.62" endPos="26.62" friendlyPos="true">
        <param key="DHID" value="de:09161:179:0:2"/>
    </busStop>
    <busStop id="18001" name="Erletstraße" lane="-22486112#1_1" startPos="42.74" endPos="68.74" friendlyPos="true">
        <param key="DHID" value="de:09161:180:0:1"/>
    </busStop>
    <busStop id="18002" name="Erletstraße" lane="22486112#0_1" startPos="9.25" endPos="40.24" friendlyPos="true">
        <param key="DHID" value="de:09161:180:0:2"/>
    </busStop>
    <busStop id="180301" name="Linnestraße" lane="136728344#4.72_1" startPos="44.34" endPos="66.77">
        <param key="DHID" value="de:09161:8886:0:1"/>
    </busStop>
    <busStop id="180302" name="Friedrichshofener Straße" lane="-130185488#1.58_1" startPos="3.15" endPos="29.15" friendlyPos="true">
        <param key="DHID" value="de:09161:8886:0:2"/>
    </busStop>
    <busStop id="180801" name="Gaimersheim, Gewerbegebiet" lane="-161783477_1" startPos="164.08" endPos="190.08" friendlyPos="true">
        <param key="Busbucht" value="ja"/>
        <param key="DHID" value="de:09161:8036:0:1"/>
    </busStop>
    <busStop id="180802" name="Gaimersheim, Gewerbegebiet" lane="-161783480_1" startPos="0.00" endPos="13.00" friendlyPos="true">
        <param key="Busbucht" value="ja"/>
        <param key="DHID" value="de:09161:8036:0:1"/>
    </busStop>
    <busStop id="181101" name="Elisabethstraße" lane="718844698#6_1" startPos="0.34" endPos="13.38">
        <param key="DHID" value="de:09161:8901:0:2"/>
    </busStop>
    <busStop id="181102" name="Elisabethstraße " lane="-718844698#6_1" startPos="23.40" endPos="36.50" friendlyPos="true">
        <param key="DHID" value="de:09161:8901:0:2"/>
    </busStop>
    <busStop id="18301" name="Ettringer Straße" lane="-315358242#3_2" startPos="4.51" endPos="27.27">
        <param key="DHID" value="de:09161:8050:0:1"/>
    </busStop>
    <busStop id="18302" name="Ettinger Straße" lane="315358242#4_2" startPos="39.27" endPos="58.08">
        <param key="Busbucht" value="ja"/>
        <param key="DHID" value="de:09161:8050:0:2"/>
    </busStop>
    <busStop id="18303" name="Ettinger Straße" lane="386687242#1_2" startPos="10.06" endPos="31.89">
        <param key="DHID" value="de:09161:8050:0:3"/>
    </busStop>
    <busStop id="18304" name="Ettinger Straße" lane="386687235#1_2" startPos="13.17" endPos="33.95">
        <param key="Busbucht" value="ja"/>
        <param key="DHID" value="de:09161:8050:0:4"/>
    </busStop>
    <busStop id="184096" name="Audi - Sportpark" lane="387031636.74_0" startPos="25.84" endPos="36.23">
        <param key="DHID" value="de:09161:1840:0:96"/>
    </busStop>
    <busStop id="184097" name="Audi - Sportpark" lane="387031636.74_0" startPos="48.64" endPos="60.59">
        <param key="DHID" value="de:09161:1840:0:97"/>
    </busStop>
    <busStop id="184099" name="Audi - Sportpark" lane="387031636_0" startPos="0.00" endPos="69.54" friendlyPos="true">
        <param key="DHID" value="de:09161:1840:0:99"/>
    </busStop>
    <busStop id="184599" name="Ingolstadt, Hauptbahnhof Ost" lane="-591899019_0" startPos="14.53" endPos="40.57">
        <param key="DHID" value="de:09161:1845:0:99"/>
    </busStop>
    <busStop id="184601" name="Gaimersheim, Horchstraße" lane="320733892#0_1" startPos="41.98" endPos="67.98" friendlyPos="true">
        <param key="DHID" value="de:09161:8036:0:1"/>
    </busStop>
    <busStop id="184602" name="Gaimersheim, Horchstraße" lane="-148527688#2_1" startPos="9.41" endPos="35.41" friendlyPos="true">
        <param key="DHID" value="de:09161:8036:0:1"/>
    </busStop>
    <busStop id="184901" name="Gaimersheim, Bahnhof" lane="E3_0" startPos="83.35" endPos="93.35">
        <param key="DHID" value="de:09161:8036:0:1"/>
    </busStop>
    <busStop id="184902" name="Gaimersheim, Bahnhof" lane="-E3_0" startPos="29.38" endPos="39.38">
        <param key="DHID" value="de:09161:8036:0:1"/>
    </busStop>
    <busStop id="185001" name="Audi Tor 3" lane="-542806889_2" startPos="48.34" endPos="58.34" friendlyPos="true">
        <param key="DHID" value="de:09161:1850:0:1"/>
    </busStop>
    <busStop id="185002" name="Audi Tor 3" lane="542806889_2" startPos="11.56" endPos="21.56" friendlyPos="true">
        <param key="DHID" value="de:09161:1850:0:1"/>
    </busStop>
    <busStop id="18501" name="Fauststraße" lane="-60100821#0_1" startPos="30.62" endPos="53.96">
        <param key="DHID" value="de:09161:8900:0:2"/>
    </busStop>
    <busStop id="18502" name="Fauststraße" lane="60100821#0_1" startPos="41.37" endPos="67.37" friendlyPos="true">
        <param key="DHID" value="de:09161:8900:0:1"/>
    </busStop>
    <busStop id="185101" name="Audi - A 56" lane="611319808#2_0" startPos="4.44" endPos="14.44">
        <param key="DHID" value="de:09161:1851:0:1"/>
    </busStop>
    <busStop id="185102" name="Audi - A 56" lane="805074683#0_0" startPos="43.52" endPos="53.52">
        <param key="DHID" value="de:09161:1851:0:1"/>
    </busStop>
    <busStop id="185301" name="Audi - T 35 / T 23" lane="-335392792_0" startPos="77.85" endPos="87.85">
        <param key="DHID" value="de:09161:1853:0:2"/>
    </busStop>
    <busStop id="185302" name="Audi - T 35 / T 23" lane="335392792_0" startPos="17.43" endPos="27.43">
        <param key="DHID" value="de:09161:1853:0:2"/>
    </busStop>
    <busStop id="185699" name="Lentinger Straße" lane="-127076895_1" startPos="0.00" endPos="29.49" friendlyPos="true">
        <param key="DHID" value="de:09161:1856:0:99"/>
    </busStop>
    <busStop id="18601" name="Feldschlößl" lane="4942575#0_2" startPos="63.34" endPos="73.34">
        <param key="DHID" value="de:09161:8824:0:2"/>
    </busStop>
    <busStop id="18602" name="Feldschlößl" lane="31342350#4_2" startPos="99.83" endPos="109.83">
        <param key="DHID" value="de:09161:8824:0:2"/>
    </busStop>
    <busStop id="186301" name="Am Eichelanger" lane="22603941#3_1" startPos="18.14" endPos="44.14" friendlyPos="true">
        <param key="DHID" value="de:09186:8130:0:1"/>
    </busStop>
    <busStop id="186302" name="Am Eichelanger" lane="-147014252#2_1" startPos="21.28" endPos="47.28" friendlyPos="true">
        <param key="DHID" value="de:09186:8130:0:2"/>
    </busStop>
    <busStop id="186501" name="Niederfelder Straße " lane="51262568_1" startPos="23.63" endPos="49.63" friendlyPos="true">
        <param key="DHID" value="de:09161:8954:0:1"/>
    </busStop>
    <busStop id="186502" name="Niederfelder Straße" lane="-30315926#1_2" startPos="17.29" endPos="27.29">
        <param key="DHID" value="de:09161:8954:0:2"/>
    </busStop>
    <busStop id="186601" name="Meinlettenstraße" lane="41494741#2_2" startPos="12.61" endPos="22.61">
        <param key="DHID" value="de:09161:8955:0:1"/>
    </busStop>
    <busStop id="186602" name="Meinlettenstraße" lane="-201400751#0_2" startPos="297.28" endPos="307.28">
        <param key="DHID" value="de:09161:8955:0:2"/>
    </busStop>
    <busStop id="18701" name="Feselenstraße" lane="23184252#2_1" startPos="44.41" endPos="70.41" friendlyPos="true">
        <param key="DHID" value="de:09161:187:0:2"/>
    </busStop>
    <busStop id="18702" name="Feselenstraße" lane="-23184252#2_1" startPos="7.20" endPos="33.20" friendlyPos="true">
        <param key="DHID" value="de:09161:187:0:1"/>
    </busStop>
    <busStop id="187401" name="Gaimersheim, Lilienthalstraße " lane="148527678#0_1" startPos="21.30" endPos="47.30" friendlyPos="true">
        <param key="DHID" value="de:09161:1492:0:2"/>
    </busStop>
    <busStop id="187402" name="Gaimersheim, Lilienthalstraße " lane="-148527678#0_1" startPos="94.99" endPos="120.99" friendlyPos="true">
        <param key="DHID" value="de:09161:1492:0:2"/>
    </busStop>
    <busStop id="188401" name="Audi - T2" lane="-206411605#7_0" startPos="6.81" endPos="16.81">
        <param key="DHID" value="de:09161:7635:0:1"/>
    </busStop>
    <busStop id="188402" name="Audi - T2" lane="206411605#7_0" startPos="129.98" endPos="139.98">
        <param key="DHID" value="de:09161:7635:0:2"/>
    </busStop>
    <busStop id="188501" name="Audi - T 41" lane="206411605#7_0" startPos="1.83" endPos="11.83">
        <param key="DHID" value="de:09161:7668:0:2"/>
    </busStop>
    <busStop id="188502" name="Audi - T41" lane="-206411605#7_0" startPos="131.93" endPos="141.93">
        <param key="DHID" value="de:09161:7668:0:2"/>
    </busStop>
    <busStop id="188601" name="Audi - Bahnhalt Süd" lane="-29254786#0_0" startPos="5.42" endPos="15.42">
        <param key="DHID" value="de:09161:7678:0:2"/>
    </busStop>
    <busStop id="188602" name="Audi - Bahnhalt Süd" lane="29254786#0_0" startPos="6.25" endPos="16.25">
        <param key="DHID" value="de:09161:7678:0:2"/>
    </busStop>
    <busStop id="189199" name="Pfingstäckerweg" lane="-23622056#0_1" startPos="67.21" endPos="91.82">
        <param key="DHID" value="de:09161:80:0:1"/>
    </busStop>
    <busStop id="189299" name="Steigerwaldstraße " lane="-307536275#3_1" startPos="537.29" endPos="563.29" friendlyPos="true">
        <param key="DHID" value="de:09161:1892:0:99"/>
    </busStop>
    <busStop id="189799" name="Isaak-Newton-Straße" lane="-146973218#1_1" startPos="62.30" endPos="72.30">
        <param key="DHID" value="de:09161:4438:0:1"/>
    </busStop>
    <busStop id="190101" name="Am Kreuzäcker" lane="41522169#3_1" startPos="18.17" endPos="44.17" friendlyPos="true">
        <param key="DHID" value="de:09161:7485:0:1"/>
    </busStop>
    <busStop id="190102" name="Am Kreuzäcker" lane="-41522169#2_1" startPos="88.91" endPos="114.91" friendlyPos="true">
        <param key="Busbucht" value="ja"/>
        <param key="DHID" value="de:09161:7485:0:2"/>
    </busStop>
    <busStop id="190601" name="Bahnhof Ingolstadt Audi - Bussteig 1" lane="763221359_0" startPos="12.90" endPos="27.15">
        <param key="DHID" value="de:09161:1750:1:1"/>
    </busStop>
    <busStop id="190602" name="Bahnhof Ingolstadt Audi - Bussteig 2" lane="763221359_0" startPos="34.22" endPos="47.60">
        <param key="DHID" value="de:09161:1750:1:1"/>
    </busStop>
    <busStop id="190603" name="Bahnhof Ingolstadt Audi - Bussteig 3" lane="763221359_0" startPos="53.75" endPos="65.52">
        <param key="DHID" value="de:09161:1750:1:2"/>
    </busStop>
    <busStop id="190604" name="Bahnhof Ingolstadt Audi - Bussteig 4" lane="763221359_0" startPos="71.40" endPos="82.83">
        <param key="DHID" value="de:09161:1750:1:3"/>
    </busStop>
    <busStop id="190605" name="Bahnhof Ingolstadt Audi - Bussteig 5" lane="763360623_0" startPos="38.70" endPos="50.53">
        <param key="DHID" value="de:09161:1750:1:6"/>
    </busStop>
    <busStop id="190606" name="Bahnhof Ingolstadt Audi - Bussteig 6" lane="763360623_0" startPos="59.24" endPos="70.50">
        <param key="DHID" value="de:09161:1750:1"/>
    </busStop>
    <busStop id="190607" name="Bahnhof Ingolstadt Audi - Bussteig 7" lane="763360623_0" startPos="79.08" endPos="91.79">
        <param key="DHID" value="de:09161:1750:1:7"/>
    </busStop>
    <busStop id="190608" name="Bahnhof Ingolstadt Audi - Bussteig 8" lane="763360623_0" startPos="96.76" endPos="109.81">
        <param key="DHID" value="de:09161:1750:1:8"/>
    </busStop>
    <busStop id="19701" name="Fraunhoferstraße" lane="-205182378#5_1" startPos="63.07" endPos="89.07" friendlyPos="true">
        <param key="DHID" value="de:09161:7989:0:1"/>
    </busStop>
    <busStop id="19702" name="Fraunhoferstraße" lane="205182378#6_1" startPos="21.71" endPos="47.71" friendlyPos="true">
        <param key="DHID" value="de:09161:7989:0:10"/>
    </busStop>
    <busStop id="20101" name="Friedrich-Ebert-Straße" lane="137463475#2_2" startPos="78.28" endPos="88.28">
        <param key="DHID" value="de:09161:201:0:1"/>
    </busStop>
    <busStop id="20102" name="Friedrich-Ebert-Straße" lane="-137463475#2_2" startPos="54.11" endPos="64.11">
        <param key="DHID" value="de:09161:201:0:1"/>
    </busStop>
    <busStop id="20201" name="Frueaufstraße" lane="-201286890#3_1" startPos="71.48" endPos="97.48" friendlyPos="true">
        <param key="DHID" value="de:09161:202:0:1"/>
    </busStop>
    <busStop id="20202" name="Frueaufstraße" lane="201286890#3_1" startPos="39.07" endPos="65.07" friendlyPos="true">
        <param key="DHID" value="de:09161:202:0:2"/>
    </busStop>
    <busStop id="20401" name="Gabelsbergerstraße" lane="201238718#0_2" startPos="109.57" endPos="122.17">
        <param key="DHID" value="de:09161:204:0:2"/>
    </busStop>
    <busStop id="20402" name="Gabelsbergerstraße" lane="-201238718#0_2" startPos="89.11" endPos="103.29">
        <param key="DHID" value="de:09161:204:0:2"/>
    </busStop>
    <busStop id="21401" name="Gaimersheim, Kraibergstraße" lane="-320733901#1_1" startPos="21.58" endPos="31.58" friendlyPos="true">
        <param key="DHID" value="de:09161:8036:0:1"/>
    </busStop>
    <busStop id="21402" name="Gaimersheim, Kraibergstraße " lane="320733901#0_1" startPos="0.00" endPos="15.11" friendlyPos="true">
        <param key="DHID" value="de:09161:8036:0:1"/>
    </busStop>
    <busStop id="21601" name="Gaimersheim, Mittlere Heide " lane="-307562643#0_1" startPos="60.12" endPos="86.12" friendlyPos="true">
        <param key="DHID" value="de:09161:8036:0:1"/>
    </busStop>
    <busStop id="21602" name="Gaimersheim, Mittlere Heide " lane="379795383_1" startPos="0.00" endPos="20.10" friendlyPos="true">
        <param key="Busbucht" value="ja"/>
        <param key="DHID" value="de:09161:8036:0:1"/>
    </busStop>
    <busStop id="23101" name="Gaimersheimer Straße" lane="28319300#0_1" startPos="0.00" endPos="25.98" friendlyPos="true">
        <param key="DHID" value="de:09161:231:0:1"/>
    </busStop>
    <busStop id="23102" name="Gaimersheimer Straße" lane="-201201945#11_2" startPos="14.25" endPos="34.94">
        <param key="DHID" value="de:09161:231:0:2"/>
    </busStop>
    <busStop id="23201" name="Ganghoferstraße " lane="30482638#12_1" startPos="7.56" endPos="33.56" friendlyPos="true">
        <param key="DHID" value="de:09161:232:0:2"/>
    </busStop>
    <busStop id="23202" name="Ganghoferstraße " lane="-30482638#12_1" startPos="105.09" endPos="131.09" friendlyPos="true">
        <param key="DHID" value="de:09161:232:0:1"/>
    </busStop>
    <busStop id="23301" name="Geibelstraße" lane="202070429#11_2" startPos="73.46" endPos="83.46">
        <param key="DHID" value="de:09161:7439:0:1"/>
    </busStop>
    <busStop id="23302" name="Geibelstraße" lane="-202070429#11_2" startPos="170.74" endPos="180.74">
        <param key="DHID" value="de:09161:7439:0:2"/>
    </busStop>
    <busStop id="2399" name="Am Westpark 1" lane="392714143#1.19_1" startPos="0.00" endPos="16.78" friendlyPos="true">
        <param key="DHID" value="de:09161:7613:0:1"/>
    </busStop>
    <busStop id="24101" name="Geisenfelder Straße " lane="-141058755#1_1" startPos="87.13" endPos="113.13" friendlyPos="true">
        <param key="DHID" value="de:09161:7992:0:1"/>
    </busStop>
    <busStop id="24102" name="Geisenfelder Straße " lane="141058755#1_1" startPos="66.98" endPos="92.98" friendlyPos="true">
        <param key="DHID" value="de:09161:7992:0:2"/>
    </busStop>
    <busStop id="24701" name="Georgstraße" lane="25638761#5_1" startPos="0.00" endPos="22.49" friendlyPos="true">
        <param key="DHID" value="de:09161:8795:0:1"/>
    </busStop>
    <busStop id="24702" name="Georgstraße" lane="-25638761#4_1" startPos="5.79" endPos="31.79" friendlyPos="true">
        <param key="DHID" value="de:09161:8795:0:2"/>