<additional>
  <poi x="9635.712542996043" y="3337.7351866792887" id="zHV_de:09161:1034:0:1" color="255,0,0" type="BusStop" />
  <poi x="9488.133173012873" y="3328.4871202632785" id="zHV_de:09161:1034:0:2" color="255,0,0" type="BusStop" />
  <poi x="4790.117409811588" y="4300.406060087495" id="zHV_de:09161:109:0:2" color="255,0,0" type="BusStop" />
  <poi x="7425.642212706851" y="3131.6711701089516" id="zHV_de:09161:113:0:1" color="255,0,0" type="BusStop" />
  <poi x="7415.138493417529" y="3138.0094736423343" id="zHV_de:09161:113:0:2" color="255,0,0" type="BusStop" />
  <poi x="7432.449180156225" y="1590.9133775541559" id="zHV_de:09161:127:0:1" color="255,0,0" type="BusStop" />
  <poi x="7414.419625439448" y="1533.591037377715" id="zHV_de:09161:127:0:10" color="255,0,0" type="BusStop" />
  <poi x="7440.393249043729" y="1595.6189340967685" id="zHV_de:09161:127:0:2" color="255,0,0" type="BusStop" />
  <poi x="7416.710734259221" y="1508.0744183491915" id="zHV_de:09161:127:0:20" color="255,0,0" type="BusStop" />
  <poi x="5383.5140714440495" y="1618.9553826721385" id="zHV_de:09161:128:0:1" color="255,0,0" type="BusStop" />
  <poi x="5319.184041116037" y="1559.0587799334899" id="zHV_de:09161:128:0:2" color="255,0,0" type="BusStop" />
  <poi x="6534.244814935839" y="1418.6179831866175" id="zHV_de:09161:137:0:2" color="255,0,0" type="BusStop" />
  <poi x="-86.52889577439055" y="3853.2893880316988" id="zHV_de:09161:1489:0:99" color="255,0,0" type="BusStop" />
  <poi x="3584.7558924134355" y="6678.896062250249" id="zHV_de:09161:1492:0:1" color="255,0,0" type="BusStop" />
  <poi x="3583.321902938653" y="6677.738344607875" id="zHV_de:09161:1492:0:2" color="255,0,0" type="BusStop" />
  <poi x="3591.54100469267" y="6696.91097604949" id="zHV_de:09161:1492:0:99" color="255,0,0" type="BusStop" />
  <poi x="762.0099923504749" y="5003.155030255206" id="zHV_de:09161:1521:0:1" color="255,0,0" type="BusStop" />
  <poi x="760.9878414085833" y="4988.660237749107" id="zHV_de:09161:1521:0:2" color="255,0,0" type="BusStop" />
  <poi x="6809.720657519065" y="3549.1760956477374" id="zHV_de:09161:1561:0:98" color="255,0,0" type="BusStop" />
  <poi x="6781.319276020862" y="3586.0956580182537" id="zHV_de:09161:1561:0:99" color="255,0,0" type="BusStop" />
  <poi x="398.8950045059901" y="3878.2695985743776" id="zHV_de:09161:1567:0:1" color="255,0,0" type="BusStop" />
  <poi x="387.2605788798537" y="3850.0967763885856" id="zHV_de:09161:1567:0:2" color="255,0,0" type="BusStop" />
  <poi x="7048.403414600878" y="415.9161693351343" id="zHV_de:09161:1588:0:1" color="255,0,0" type="BusStop" />
  <poi x="3747.8732469204115" y="-1362.1320714764297" id="zHV_de:09161:1605:0:1" color="255,0,0" type="BusStop" />
  <poi x="3744.405085322098" y="-1368.916468036361" id="zHV_de:09161:1605:0:2" color="255,0,0" type="BusStop" />
  <poi x="10671.895166011527" y="5734.818300261162" id="zHV_de:09161:1608:0:99" color="255,0,0" type="BusStop" />
  <poi x="6916.142681149533" y="4429.326021783054" id="zHV_de:09161:1624:0:1" color="255,0,0" type="BusStop" />
  <poi x="6916.770616002381" y="4432.683995828964" id="zHV_de:09161:1624:0:2" color="255,0,0" type="BusStop" />
  <poi x="6830.917627599323" y="3829.121056713164" id="zHV_de:09161:1625:0:98" color="255,0,0" type="BusStop" />
  <poi x="6905.3014053598745" y="3918.2877311343327" id="zHV_de:09161:1625:0:99" color="255,0,0" type="BusStop" />
  <poi x="5158.840155858314" y="720.6427290616557" id="zHV_de:09161:166:0:1" color="255,0,0" type="BusStop" />
  <poi x="5223.00597768696" y="786.094511709176" id="zHV_de:09161:166:0:2" color="255,0,0" type="BusStop" />
  <poi x="2271.3012078563916" y="-665.1495286347345" id="zHV_de:09161:1672:0:99" color="255,0,0" type="BusStop" />
  <poi x="4158.304165318841" y="-1442.6762744821608" id="zHV_de:09161:1675:0:1" color="255,0,0" type="BusStop" />
  <poi x="4150.4581005556975" y="-1450.7114010667428" id="zHV_de:09161:1675:0:2" color="255,0,0" type="BusStop" />
  <poi x="4620.027467228007" y="-1514.896243777126" id="zHV_de:09161:1676:0:10" color="255,0,0" type="BusStop" />
  <poi x="4643.986772382399" y="-1527.4905798714608" id="zHV_de:09161:1676:0:20" color="255,0,0" type="BusStop" />
  <poi x="4612.400929912808" y="-1669.7854978013784" id="zHV_de:09161:1676:0:99" color="255,0,0" type="BusStop" />
  <poi x="9761.074793715146" y="6829.972755094059" id="zHV_de:09161:1677:0:99" color="255,0,0" type="BusStop" />
  <poi x="6028.411379877478" y="-2111.100701799616" id="zHV_de:09161:1685:0:99" color="255,0,0" type="BusStop" />
  <poi x="3810.8021319279214" y="5828.21117612347" id="zHV_de:09161:1710:0:99" color="255,0,0" type="BusStop" />
  <poi x="4718.313323043985" y="5662.172582923435" id="zHV_de:09161:1711:0:99" color="255,0,0" type="BusStop" />
  <poi x="3631.068772726343" y="5277.385851873085" id="zHV_de:09161:1714:0:99" color="255,0,0" type="BusStop" />
  <poi x="5934.807903252076" y="1846.764590036124" id="zHV_de:09161:1731:0:1" color="255,0,0" type="BusStop" />
  <poi x="5942.061191581539" y="1826.9687663484365" id="zHV_de:09161:1731:0:10" color="255,0,0" type="BusStop" />
  <poi x="5943.079494095873" y="1818.100390878506" id="zHV_de:09161:1731:0:2" color="255,0,0" type="BusStop" />
  <poi x="6127.570657620672" y="1894.072788667865" id="zHV_de:09161:1731:0:20" color="255,0,0" type="BusStop" />
  <poi x="4353.615097081289" y="7451.923702546395" id="zHV_de:09161:1750:1" color="255,0,0" type="BusStop" />
  <poi x="4449.351585392375" y="7330.340900382027" id="zHV_de:09161:1750:2" color="255,0,0" type="BusStop" />
  <poi x="4299.330469533103" y="7518.075787063688" id="zHV_de:09161:1750:91" color="255,0,0" type="BusStop" />
  <poi x="4522.246214924613" y="7256.9908445272595" id="zHV_de:09161:1750:92" color="255,0,0" type="BusStop" />
  <poi x="4319.794665009482" y="7475.331512776203" id="zHV_de:09161:1750:1:1" color="255,0,0" type="BusStop" />
  <poi x="4342.911977598094" y="7464.9364264132455" id="zHV_de:09161:1750:1:2" color="255,0,0" type="BusStop" />
  <poi x="4366.728619412286" y="7455.67613949161" id="zHV_de:09161:1750:1:3" color="255,0,0" type="BusStop" />
  <poi x="4390.545344254118" y="7446.415952212177" id="zHV_de:09161:1750:1:4" color="255,0,0" type="BusStop" />
  <poi x="4386.385071234079" y="7438.496217029169" id="zHV_de:09161:1750:1:5" color="255,0,0" type="BusStop" />
  <poi x="4364.806630079402" y="7446.714604767971" id="zHV_de:09161:1750:1:6" color="255,0,0" type="BusStop" />
  <poi x="4339.486041377648" y="7457.039946459234" id="zHV_de:09161:1750:1:7" color="255,0,0" type="BusStop" />
  <poi x="4314.8647988440935" y="7468.500099808909" id="zHV_de:09161:1750:1:8" color="255,0,0" type="BusStop" />
  <poi x="4479.708284929628" y="7323.51314366702" id="zHV_de:09161:1750:2:1" color="255,0,0" type="BusStop" />
  <poi x="4475.583194427774" y="7314.4818595107645" id="zHV_de:09161:1750:2:2" color="255,0,0" type="BusStop" />
  <poi x="9214.668786764843" y="2800.0048137251288" id="zHV_de:09161:179:0:1" color="255,0,0" type="BusStop" />
  <poi x="9183.798213729053" y="2799.003445859067" id="zHV_de:09161:179:0:2" color="255,0,0" type="BusStop" />
  <poi x="7595.492138944799" y="2013.383193841204" id="zHV_de:09161:180:0:1" color="255,0,0" type="BusStop" />
  <poi x="7480.151009962428" y="2007.4517004396766" id="zHV_de:09161:180:0:10" color="255,0,0" type="BusStop" />
  <poi x="7579.462575326324" y="2008.4174962723628" id="zHV_de:09161:180:0:2" color="255,0,0" type="BusStop" />
  <poi x="7482.035011086729" y="2017.5257837874815" id="zHV_de:09161:180:0:20" color="255,0,0" type="BusStop" />
  <poi x="7481.106707475032" y="2046.4240381065756" id="zHV_de:09161:180:0:40" color="255,0,0" type="BusStop" />
  <poi x="4395.035424386384" y="-77.87013192940503" id="zHV_de:09161:1812:0:1" color="255,0,0" type="BusStop" />
  <poi x="4430.854718516115" y="0.02813973743468523" id="zHV_de:09161:1812:0:2" color="255,0,0" type="BusStop" />
  <poi x="4683.735405856511" y="-198.92600647266954" id="zHV_de:09161:1813:0:99" color="255,0,0" type="BusStop" />
  <poi x="10109.93530440377" y="2557.632825697772" id="zHV_de:09161:1840:0:96" color="255,0,0" type="BusStop" />
  <poi x="10089.198532914394" y="2539.154511416331" id="zHV_de:09161:1840:0:97" color="255,0,0" type="BusStop" />
  <poi x="10130.568432191387" y="2511.574186260812" id="zHV_de:09161:1840:0:98" color="255,0,0" type="BusStop" />
  <poi x="10109.878213030403" y="2514.237651474774" id="zHV_de:09161:1840:0:99" color="255,0,0" type="BusStop" />
  <poi x="1121.4643819008488" y="6051.194314056076" id="zHV_de:09161:1842:0:1" color="255,0,0" type="BusStop" />
  <poi x="1092.5886905586813" y="6010.246433538385" id="zHV_de:09161:1842:0:2" color="255,0,0" type="BusStop" />
  <poi x="7077.301397436531" y="2385.053132701665" id="zHV_de:09161:1845:0:10" color="255,0,0" type="BusStop" />
  <poi x="6920.272382002557" y="2325.5038173422217" id="zHV_de:09161:1845:0:99" color="255,0,0" type="BusStop" />
  <poi x="5014.854749097722" y="7556.315780881792" id="zHV_de:09161:1847:0:1" color="255,0,0" type="BusStop" />
  <poi x="5017.057874688646" y="7556.38570478186" id="zHV_de:09161:1847:0:2" color="255,0,0" type="BusStop" />
  <poi x="5628.532318913611" y="6406.475644414313" id="zHV_de:09161:1850:0:1" color="255,0,0" type="BusStop" />
  <poi x="5636.797662603785" y="6377.8110134694725" id="zHV_de:09161:1850:0:2" color="255,0,0" type="BusStop" />
  <poi x="5237.9899074172135" y="6572.07222200837" id="zHV_de:09161:1851:0:1" color="255,0,0" type="BusStop" />
  <poi x="5228.370723265456" y="6573.991850324906" id="zHV_de:09161:1851:0:2" color="255,0,0" type="BusStop" />
  <poi x="4812.074282791582" y="7645.567168107256" id="zHV_de:09161:1853:0:1" color="255,0,0" type="BusStop" />
  <poi x="4849.32109118416" y="7630.059116072021" id="zHV_de:09161:1853:0:2" color="255,0,0" type="BusStop" />
  <poi x="5749.493443332496" y="5840.672900275327" id="zHV_de:09161:1854:0:1" color="255,0,0" type="BusStop" />
  <poi x="5748.3074607953895" y="5831.734269228764" id="zHV_de:09161:1854:0:2" color="255,0,0" type="BusStop" />
  <poi x="7607.406924729934" y="7541.289392400533" id="zHV_de:09161:1856:0:99" color="255,0,0" type="BusStop" />
  <poi x="4382.033767848508" y="-739.1520309420303" id="zHV_de:09161:1867:0:1" color="255,0,0" type="BusStop" />
  <poi x="4494.569131681346" y="-922.5145438602194" id="zHV_de:09161:1867:0:10" color="255,0,0" type="BusStop" />
  <poi x="4405.534366480191" y="-760.6622819751501" id="zHV_de:09161:1867:0:2" color="255,0,0" type="BusStop" />
  <poi x="4477.967510462739" y="-909.6875319639221" id="zHV_de:09161:1867:0:20" color="255,0,0" type="BusStop" />
  <poi x="7031.212521156413" y="3363.7897447943687" id="zHV_de:09161:187:0:1" color="255,0,0" type="BusStop" />
  <poi x="7017.805601057829" y="3368.9230640120804" id="zHV_de:09161:187:0:2" color="255,0,0" type="BusStop" />
  <poi x="7915.097848660196" y="5408.275848371908" id="zHV_de:09161:1870:0:2" color="255,0,0" type="BusStop" />
  <poi x="1656.4423060170375" y="5493.737072602846" id="zHV_de:09161:1892:0:99" color="255,0,0" type="BusStop" />
  <poi x="3785.473574140924" y="5908.631954751909" id="zHV_de:09161:1907:0:99" color="255,0,0" type="BusStop" />
  <poi x="6755.506836170331" y="5127.353740990162" id="zHV_de:09161:201:0:1" color="255,0,0" type="BusStop" />
  <poi x="6751.535797603661" y="5159.49245175533" id="zHV_de:09161:201:0:2" color="255,0,0" type="BusStop" />
  <poi x="7371.675855018897" y="1237.3757169973105" id="zHV_de:09161:202:0:1" color="255,0,0" type="BusStop" />
  <poi x="7386.352122720098" y="1284.5766315050423" id="zHV_de:09161:202:0:2" color="255,0,0" type="BusStop" />
  <poi x="4127.609536123811" y="5995.076483022422" id="zHV_de:09161:231:0:1" color="255,0,0" type="BusStop" />
  <poi x="4192.568215035601" y="5987.113911796361" id="zHV_de:09161:231:0:2" color="255,0,0" type="BusStop" />
  <poi x="7578.389175686287" y="4924.5661895619705" id="zHV_de:09161:232:0:1" color="255,0,0" type="BusStop" />
  <poi x="7556.383049805299" y="4922.745673553087" id="zHV_de:09161:232:0:2" color="255,0,0" type="BusStop" />
  <poi x="6339.938865231816" y="-588.0448046764359" id="zHV_de:09161:244:0:1" color="255,0,0" type="BusStop" />
  <poi x="6301.155214875005" y="-456.8822368932888" id="zHV_de:09161:244:0:10" color="255,0,0" type="BusStop" />
  <poi x="6368.390476870933" y="-533.7325100041926" id="zHV_de:09161:244:0:2" color="255,0,0" type="BusStop" />
  <poi x="6300.8716798577225" y="-447.99047964438796" id="zHV_de:09161:244:0:20" color="255,0,0" type="BusStop" />
  <poi x="6367.974122107262" y="-543.7591944597661" id="zHV_de:09161:244:0:3" color="255,0,0" type="BusStop" />
  <poi x="6409.780312062008" y="-608.0689317733049" id="zHV_de:09161:244:0:4" color="255,0,0" type="BusStop" />
  <poi x="7916.460968222003" y="6187.16154154297" id="zHV_de:09161:259:0:99" color="255,0,0" type="BusStop" />
  <poi x="8101.059865314863" y="5343.064954473637" id="zHV_de:09161:262:0:99" color="255,0,0" type="BusStop" />
  <poi x="10188.996811968973" y="5568.824846306816" id="zHV_de:09161:266:0:1" color="255,0,0" type="BusStop" />
  <poi x="10115.050708463299" y="5558.622932428494" id="zHV_de:09161:266:0:2" color="255,0,0" type="BusStop" />
  <poi x="5075.484095047228" y="261.8401957927272" id="zHV_de:09161:281:0:1" color="255,0,0" type="BusStop" />
  <poi x="5072.644375942764" y="281.77682372555137" id="zHV_de:09161:281:0:2" color="255,0,0" type="BusStop" />
  <poi x="9403.20305314043" y="6552.401668890379" id="zHV_de:09161:2907:0:1" color="255,0,0" type="BusStop" />
  <poi x="2042.2737800227478" y="-733.4732311321422" id="zHV_de:09161:3:0:1" color="255,0,0" type="BusStop" />
  <poi x="2040.560709554702" y="-725.738684351556" id="zHV_de:09161:3:0:2" color="255,0,0" type="BusStop" />
  <poi x="4038.644718463649" y="5668.5060256375" id="zHV_de:09161:304:0:99" color="255,0,0" type="BusStop" />
  <poi x="7190.673968265415" y="4836.4486689623445" id="zHV_de:09161:308:0:1" color="255,0,0" type="BusStop" />
  <poi x="7166.641601760988" y="4829.001565040089" id="zHV_de:09161:308:0:2" color="255,0,0" type="BusStop" />
  <poi x="4653.474529206753" y="5364.169746893458" id="zHV_de:09161:325:0:1" color="255,0,0" type="BusStop" />
  <poi x="4655.541922181961" y="5345.32109084446" id="zHV_de:09161:325:0:2" color="255,0,0" type="BusStop" />
  <poi x="4019.8620213146787" y="3605.1806392194703" id="zHV_de:09161:328:0:99" color="255,0,0" type="BusStop" />
  <poi x="4777.918450389174" y="547.2573629226536" id="zHV_de:09161:331:0:1" color="255,0,0" type="BusStop" />
  <poi x="4752.918418553192" y="546.466773873195" id="zHV_de:09161:331:0:2" color="255,0,0" type="BusStop" />
  <poi x="5869.3146277263295" y="-119.05571872089058" id="zHV_de:09161:353:0:1" color="255,0,0" type="BusStop" />
  <poi x="5613.806929530576" y="-209.5104107214138" id="zHV_de:09161:353:0:10" color="255,0,0" type="BusStop" />
  <poi x="5873.585500010289" y="-114.4694615798071" id="zHV_de:09161:353:0:2" color="255,0,0" type="BusStop" />
  <poi x="5621.549308424932" y="-221.50297120120376" id="zHV_de:09161:353:0:20" color="255,0,0" type="BusStop" />
  <poi x="2127.5427453924203" y="-1131.3375896848738" id="zHV_de:09161:4:0:1" color="255,0,0" type="BusStop" />
  <poi x="2096.392386535066" y="-1076.679806872271" id="zHV_de:09161:4:0:2" color="255,0,0" type="BusStop" />
  <poi x="4185.516919596819" y="-1628.7315790159628" id="zHV_de:09161:41:0:1" color="255,0,0" type="BusStop" />
  <poi x="4174.797873148695" y="-1662.4464136408642" id="zHV_de:09161:41:0:2" color="255,0,0" type="BusStop" />
  <poi x="5160.564805517322" y="1548.4646920319647" id="zHV_de:09161:442:0:1" color="255,0,0" type="BusStop" />
  <poi x="5170.434229115257" y="1562.1286988835782" id="zHV_de:09161:442:0:2" color="255,0,0" type="BusStop" />
  <poi x="9475.04949809215" y="6717.185018769465" id="zHV_de:09161:4438:0:1" color="255,0,0" type="BusStop" />
  <poi x="9498.878914887435" y="6707.946313871071" id="zHV_de:09161:4438:0:2" color="255,0,0" type="BusStop" />
  <poi x="7122.717547940789" y="784.3459934145212" id="zHV_de:09161:4492:0:1" color="255,0,0" type="BusStop" />
  <poi x="7121.732946439646" y="792.1027216147631" id="zHV_de:09161:4492:0:2" color="255,0,0" type="BusStop" />
  <poi x="7103.310787222348" y="930.5888304179534" id="zHV_de:09161:738:0:10" color="255,0,0" type="BusStop" />
  <poi x="7102.954621864017" y="941.7035341886804" id="zHV_de:09161:738:0:20" color="255,0,0" type="BusStop" />
  <poi x="10522.72936235601" y="5101.285135762766" id="zHV_de:09161:45:0:1" color="255,0,0" type="BusStop" />
  <poi x="10686.570938723162" y="5106.644778864458" id="zHV_de:09161:45:0:2" color="255,0,0" type="BusStop" />
  <poi x="5475.005889343447" y="1819.9024389181286" id="zHV_de:09161:46:0:1" color="255,0,0" type="BusStop" />
  <poi x="5487.426187047968" y="1845.8866549823433" id="zHV_de:09161:46:0:2" color="255,0,0" type="BusStop" />
  <poi x="7056.301809359575" y="4095.5834702234715" id="zHV_de:09161:465:0:1" color="255,0,0" type="BusStop" />
  <poi x="4682.260082833003" y="3966.5520879570395" id="zHV_de:09161:468:0:1" color="255,0,0" type="BusStop" />
  <poi x="4661.340019376134" y="3930.2872495744377" id="zHV_de:09161:468:0:2" color="255,0,0" type="BusStop" />
  <poi x="9872.775278909365" y="5500.65347163938" id="zHV_de:09161:473:0:1" color="255,0,0" type="BusStop" />
  <poi x="9891.405581221334" y="5515.7250710409135" id="zHV_de:09161:473:0:2" color="255,0,0" type="BusStop" />
  <poi x="9160.221534580109" y="5158.150996541604" id="zHV_de:09161:505:0:1" color="255,0,0" type="BusStop" />
  <poi x="9218.456563216052" y="5176.730976617895" id="zHV_de:09161:505:0:2" color="255,0,0" type="BusStop" />
  <poi x="7225.0519623211585" y="1173.7031506709754" id="zHV_de:09161:508:0:99" color="255,0,0" type="BusStop" />
  <poi x="5917.671074423823" y="-667.1393661554903" id="zHV_de:09161:51:0:1" color="255,0,0" type="BusStop" />
  <poi x="5837.462738076225" y="-760.9234853331" id="zHV_de:09161:51:0:10" color="255,0,0" type="BusStop" />
  <poi x="5869.844876638032" y="-714.2772164056078" id="zHV_de:09161:51:0:2" color="255,0,0" type="BusStop" />
  <poi x="5842.858462111093" y="-768.5400482742116" id="zHV_de:09161:51:0:20" color="255,0,0" type="BusStop" />
  <poi x="6083.135718979291" y="2110.7264704937115" id="zHV_de:09161:512:0:1" color="255,0,0" type="BusStop" />
  <poi x="5880.524817699916" y="2118.7358532072976" id="zHV_de:09161:512:0:10" color="255,0,0" type="BusStop" />
  <poi x="6044.2819974800805" y="2106.1503607500345" id="zHV_de:09161:512:0:2" color="255,0,0" type="BusStop" />
  <poi x="8769.706935988506" y="2703.2528524687514" id="zHV_de:09161:519:0:1" color="255,0,0" type="BusStop" />
  <poi x="8781.10763901833" y="2714.748133569956" id="zHV_de:09161:519:0:2" color="255,0,0" type="BusStop" />
  <poi x="10643.26398138469" y="4789.232126717456" id="zHV_de:09161:527:0:99" color="255,0,0" type="BusStop" />
  <poi x="4429.061623845715" y="-1553.1878400966525" id="zHV_de:09161:562:0:1" color="255,0,0" type="BusStop" />
  <poi x="4440.935920822434" y="-1556.151012353599" id="zHV_de:09161:562:0:2" color="255,0,0" type="BusStop" />
  <poi x="6308.393928061123" y="1346.8760662740096" id="zHV_de:09161:564:0:2" color="255,0,0" type="BusStop" />
  <poi x="4040.8733942790423" y="5807.649793817662" id="zHV_de:09161:580:0:1" color="255,0,0" type="BusStop" />
  <poi x="4041.5010634753853" y="5834.371704231948" id="zHV_de:09161:580:0:2" color="255,0,0" type="BusStop" />
  <poi x="7205.528734624269" y="3548.5119157014415" id="zHV_de:09161:581:0:1" color="255,0,0" type="BusStop" />
  <poi x="7226.498947586631" y="3651.5457931244746" id="zHV_de:09161:581:0:10" color="255,0,0" type="BusStop" />
  <poi x="7195.6323193615535" y="3535.955555171706" id="zHV_de:09161:581:0:2" color="255,0,0" type="BusStop" />
  <poi x="7321.850393287139" y="3614.552509586327" id="zHV_de:09161:581:0:20" color="255,0,0" type="BusStop" />
  <poi x="7890.345912363962" y="5012.494538351893" id="zHV_de:09161:613:0:1" color="255,0,0" type="BusStop" />
  <poi x="7805.601078519248" y="4971.934795871377" id="zHV_de:09161:613:0:10" color="255,0,0" type="BusStop" />
  <poi x="7869.074884359259" y="5010.6964592905715" id="zHV_de:09161:613:0:2" color="255,0,0" type="BusStop" />
  <poi x="7841.08394847298" y="5012.019843680784" id="zHV_de:09161:613:0:20" color="255,0,0" type="BusStop" />
  <poi x="8708.67234087782" y="5088.994990275241" id="zHV_de:09161:643:0:1" color="255,0,0" type="BusStop" />
  <poi x="8606.979002920678" y="5072.352100936696" id="zHV_de:09161:643:0:2" color="255,0,0" type="BusStop" />
  <poi x="4263.3709952367935" y="-221.0949855260551" id="zHV_de:09161:644:0:1" color="255,0,0" type="BusStop" />
  <poi x="4256.612289551413" y="-216.85774790123105" id="zHV_de:09161:644:0:2" color="255,0,0" type="BusStop" />
  <poi x="5104.345123320934" y="1882.6850792681798" id="zHV_de:09161:652:0:1" color="255,0,0" type="BusStop" />
  <poi x="5174.80595177284" y="1911.6211595265195" id="zHV_de:09161:652:0:2" color="255,0,0" type="BusStop" />
  <poi x="4998.601907808217" y="1829.2677389644086" id="zHV_de:09161:652:0:3" color="255,0,0" type="BusStop" />
  <poi x="5021.109147326788" y="1838.8814908433706" id="zHV_de:09161:652:0:4" color="255,0,0" type="BusStop" />
  <poi x="5767.047532604891" y="-1070.2379968417808" id="zHV_de:09161:668:0:1" color="255,0,0" type="BusStop" />
  <poi x="5707.836632311926" y="-1129.974534672685" id="zHV_de:09161:668:0:10" color="255,0,0" type="BusStop" />
  <poi x="5804.779634075239" y="-983.3688518526033" id="zHV_de:09161:668:0:2" color="255,0,0" type="BusStop" />
  <poi x="5886.850349670742" y="-1133.1842975039035" id="zHV_de:09161:668:0:20" color="255,0,0" type="BusStop" />
  <poi x="9584.81624905509" y="5332.168720842339" id="zHV_de:09161:671:0:1" color="255,0,0" type="BusStop" />
  <poi x="9605.206536315149" y="5338.395351261832" id="zHV_de:09161:671:0:2" color="255,0,0" type="BusStop" />
  <poi x="4752.083181891125" y="200.4266335722059" id="zHV_de:09161:676:0:1" color="255,0,0" type="BusStop" />
  <poi x="4713.986013781861" y="194.77188503928483" id="zHV_de:09161:676:0:2" color="255,0,0" type="BusStop" />
  <poi x="10456.725025301566" y="5635.428980216384" id="zHV_de:09161:680:0:10" color="255,0,0" type="BusStop" />
  <poi x="10470.75280556397" y="5521.283644991927" id="zHV_de:09161:680:0:2" color="255,0,0" type="BusStop" />
  <poi x="10386.752111717593" y="5638.705198615789" id="zHV_de:09161:680:0:20" color="255,0,0" type="BusStop" />
  <poi x="10451.243974323035" y="5510.631948456168" id="zHV_de:09161:680:0:4" color="255,0,0" type="BusStop" />
  <poi x="7861.239951141644" y="2490.3458016877994" id="zHV_de:09161:709:0:1" color="255,0,0" type="BusStop" />
  <poi x="7861.760293081752" y="2497.0382953993976" id="zHV_de:09161:709:0:2" color="255,0,0" type="BusStop" />
  <poi x="4930.232198933838" y="5217.172934426926" id="zHV_de:09161:718:0:1" color="255,0,0" type="BusStop" />
  <poi x="4964.813567113131" y="5147.063067350537" id="zHV_de:09161:718:0:2" color="255,0,0" type="BusStop" />
  <poi x="6504.650164168794" y="6164.071089334786" id="zHV_de:09161:720:0:1" color="255,0,0" type="BusStop" />
  <poi x="6497.802309766179" y="6148.27540415246" id="zHV_de:09161:720:0:2" color="255,0,0" type="BusStop" />
  <poi x="4458.060310304281" y="5799.686985829845" id="zHV_de:09161:723:0:1" color="255,0,0" type="BusStop" />
  <poi x="4572.6039469799725" y="5712.077486481518" id="zHV_de:09161:723:0:2" color="255,0,0" type="BusStop" />
  <poi x="6869.956138523179" y="-287.4012996824458" id="zHV_de:09161:725:0:1" color="255,0,0" type="BusStop" />
  <poi x="6769.475221190252" y="-345.13249686267227" id="zHV_de:09161:725:0:2" color="255,0,0" type="BusStop" />
  <poi x="7514.253296268405" y="2709.49742067419" id="zHV_de:09161:655:0:10" color="255,0,0" type="BusStop" />
  <poi x="7490.375522079645" y="2719.856335932389" id="zHV_de:09161:7329:0:1" color="255,0,0" type="BusStop" />
  <poi x="7488.476925779716" y="2733.146768491715" id="zHV_de:09161:7329:0:2" color="255,0,0" type="BusStop" />
  <poi x="7521.710654662922" y="2706.399214139208" id="zHV_de:09161:7329:0:20" color="255,0,0" type="BusStop" />
  <poi x="8240.7703004363" y="4592.097009717487" id="zHV_de:09161:7416:0:1" color="255,0,0" type="BusStop" />
  <poi x="4065.4073023849633" y="8780.155021386221" id="zHV_de:09161:7417:0:1" color="255,0,0" type="BusStop" />
  <poi x="6828.513190754922" y="7323.778380171396" id="zHV_de:09161:7418:0:1" color="255,0,0" type="BusStop" />
  <poi x="7152.763192068553" y="2395.2608463624492" id="zHV_de:09161:7419:0:1" color="255,0,0" type="BusStop" />
  <poi x="6090.058485517511" y="3901.1281254757196" id="zHV_de:09161:7420:0:1" color="255,0,0" type="BusStop" />
  <poi x="7623.965287182829" y="3416.201306867413" id="zHV_de:09161:7422:0:1" color="255,0,0" type="BusStop" />
  <poi x="7661.319499970763" y="3398.488248864189" id="zHV_de:09161:7422:0:2" color="255,0,0" type="BusStop" />
  <poi x="9846.818604344502" y="7064.199219749309" id="zHV_de:09161:7423:0:1" color="255,0,0" type="BusStop" />
  <poi x="8284.692324285395" y="5942.027742793784" id="zHV_de:09161:7427:0:1" color="255,0,0" type="BusStop" />
  <poi x="6590.428131531924" y="4540.172350867651" id="zHV_de:09161:1681:0:10" color="255,0,0" type="BusStop" />
  <poi x="6614.213471436873" y="4555.397261773236" id="zHV_de:09161:1681:0:20" color="255,0,0" type="BusStop" />
  <poi x="6741.99932755623" y="4745.29387135338" id="zHV_de:09161:1681:0:30" color="255,0,0" type="BusStop" />
  <poi x="6736.678142303368" y="4750.6865748390555" id="zHV_de:09161:1681:0:40" color="255,0,0" type="BusStop" />
  <poi x="6738.325577161973" y="4745.176244094968" id="zHV_de:09161:1681:0:50" color="255,0,0" type="BusStop" />
  <poi x="6706.151337154675" y="4716.330802009441" id="zHV_de:09161:7428:0:1" color="255,0,0" type="BusStop" />
  <poi x="6708.9373304242035" y="4675.253225862049" id="zHV_de:09161:7428:0:2" color="255,0,0" type="BusStop" />
  <poi x="5904.608555331011" y="4134.426551430486" id="zHV_de:09161:7429:0:1" color="255,0,0" type="BusStop" />
  <poi x="7419.84073475888" y="5372.305969317444" id="zHV_de:09161:7439:0:1" color="255,0,0" type="BusStop" />
  <poi x="7299.798468995141" y="5331.731803576462" id="zHV_de:09161:7439:0:10" color="255,0,0" type="BusStop" />
  <poi x="7418.121289554052" y="5380.039068159647" id="zHV_de:09161:7439:0:2" color="255,0,0" type="BusStop" />
  <poi x="7217.14925581729" y="5409.186177937314" id="zHV_de:09161:7439:0:20" color="255,0,0" type="BusStop" />
  <poi x="7620.560677558649" y="7155.630020587705" id="zHV_de:09161:7484:0:1" color="255,0,0" type="BusStop" />
  <poi x="7615.150438269018" y="7140.991616033018" id="zHV_de:09161:7484:0:2" color="255,0,0" type="BusStop" />
  <poi x="7297.945707260864" y="7997.524033156224" id="zHV_de:09161:7485:0:1" color="255,0,0" type="BusStop" />
  <poi x="7175.130417807028" y="7953.522166422568" id="zHV_de:09161:7485:0:2" color="255,0,0" type="BusStop" />
  <poi x="-1766.8205357983243" y="5720.907225233503" id="zHV_de:09161:7510:0:1" color="255,0,0" type="BusStop" />
  <poi x="-1995.607860256452" y="5700.581803429872" id="zHV_de:09161:7510:0:10" color="255,0,0" type="BusStop" />
  <poi x="-1698.1300473036245" y="5710.765476882458" id="zHV_de:09161:7510:0:2" color="255,0,0" type="BusStop" />
  <poi x="-2010.299800720648" y="5700.134204808623" id="zHV_de:09161:7510:0:20" color="255,0,0" type="BusStop" />
  <poi x="-76.08458926039748" y="3322.9301854204386" id="zHV_de:09161:7515:0:1" color="255,0,0" type="BusStop" />
  <poi x="-79.34854654106312" y="3309.479246658273" id="zHV_de:09161:7515:0:2" color="255,0,0" type="BusStop" />
  <poi x="-153.53414908261038" y="2875.5317002991214" id="zHV_de:09161:7516:0:1" color="255,0,0" type="BusStop" />
  <poi x="-73.13875856203958" y="3131.6644059363753" id="zHV_de:09161:7517:0:1" color="255,0,0" type="BusStop" />
  <poi x="-47.2105097360909" y="3125.7874522544444" id="zHV_de:09161:7517:0:2" color="255,0,0" type="BusStop" />
  <poi x="86.54878449975513" y="3129.907502081245" id="zHV_de:09161:7518:0:1" color="255,0,0" type="BusStop" />
  <poi x="156.21571510180365" y="3113.141470138915" id="zHV_de:09161:7518:0:2" color="255,0,0" type="BusStop" />
  <poi x="221.66298168478534" y="3280.927915913984" id="zHV_de:09161:7519:0:1" color="255,0,0" type="BusStop" />
  <poi x="231.05639784689993" y="3357.9829484680668" id="zHV_de:09161:7519:0:2" color="255,0,0" type="BusStop" />
  <poi x="254.35439481097274" y="3508.894667780958" id="zHV_de:09161:7519:0:20" color="255,0,0" type="BusStop" />
  <poi x="227.8124269284308" y="3320.056501304731" id="zHV_de:09161:7519:0:40" color="255,0,0" type="BusStop" />
  <poi x="26.28752927982714" y="3701.0085733272135" id="zHV_de:09161:7520:0:1" color="255,0,0" type="BusStop" />
  <poi x="21.622861099196598" y="3685.2893080487847" id="zHV_de:09161:7520:0:2" color="255,0,0" type="BusStop" />
  <poi x="5194.978066545213" y="5425.839506940916" id="zHV_de:09161:7521:0:1" color="255,0,0" type="BusStop" />
  <poi x="5195.542681522551" y="5408.055835803971" id="zHV_de:09161:7521:0:2" color="255,0,0" type="BusStop" />
  <poi x="3755.9261117379647" y="6683.173486821353" id="zHV_de:09161:7525:0:1" color="255,0,0" type="BusStop" />
  <poi x="3713.218082146952" y="6778.623152403161" id="zHV_de:09161:7525:0:2" color="255,0,0" type="BusStop" />
  <poi x="3869.291354016401" y="6515.4076582482085" id="zHV_de:09161:7526:0:1" color="255,0,0" type="BusStop" />
  <poi x="3857.504185834201" y="6516.14869000297" id="zHV_de:09161:7526:0:2" color="255,0,0" type="BusStop" />
  <poi x="4096.93412556604" y="6361.262780115008" id="zHV_de:09161:7527:0:1" color="255,0,0" type="BusStop" />
  <poi x="4061.709766737069" y="6382.402916782536" id="zHV_de:09161:7527:0:2" color="255,0,0" type="BusStop" />
  <poi x="4414.165796242305" y="6699.499417871237" id="zHV_de:09161:7528:0:1" color="255,0,0" type="BusStop" />
  <poi x="4489.87237091409" y="6793.126721882261" id="zHV_de:09161:7528:0:2" color="255,0,0" type="BusStop" />