<additional>
  <poi x="6725.165909752419" y="1738.908183145006" id="halfendpos_101" color="255,128,0" type="BusStop" />
  <poi x="6740.071579130098" y="1725.4734937494177" id="halfendpos_102" color="255,128,0" type="BusStop" />
  <poi x="9616.900057583513" y="3268.1066313141973" id="halfendpos_103401" color="255,128,0" type="BusStop" />
  <poi x="9630.663387907976" y="3346.2724732989136" id="halfendpos_103402" color="255,128,0" type="BusStop" />
  <poi x="3717.664769697573" y="5263.861634386275" id="halfendpos_104201" color="255,128,0" type="BusStop" />
  <poi x="3692.7190481583616" y="5278.314812918245" id="halfendpos_104203" color="255,128,0" type="BusStop" />
  <poi x="9149.437150068325" y="1963.299363234467" id="halfendpos_10599" color="255,128,0" type="BusStop" />
  <poi x="7489.679267963131" y="4367.397856797524" id="halfendpos_10801" color="255,128,0" type="BusStop" />
  <poi x="7493.889215258567" y="4204.576707765738" id="halfendpos_10802" color="255,128,0" type="BusStop" />
  <poi x="4771.201373433489" y="4272.7071866980505" id="halfendpos_10902" color="255,128,0" type="BusStop" />
  <poi x="6203.013604970946" y="3945.127174301851" id="halfendpos_11001" color="255,128,0" type="BusStop" />
  <poi x="6201.476584359213" y="3962.431166211117" id="halfendpos_11002" color="255,128,0" type="BusStop" />
  <poi x="7421.1490904007715" y="3132.8815512682754" id="halfendpos_11301" color="255,128,0" type="BusStop" />
  <poi x="7433.424153982143" y="3129.5944204351936" id="halfendpos_11302" color="255,128,0" type="BusStop" />
  <poi x="9414.526599404397" y="2045.2227927012457" id="halfendpos_11499" color="255,128,0" type="BusStop" />
  <poi x="7826.6254793984735" y="8332.901579394706" id="halfendpos_118201" color="255,128,0" type="BusStop" />
  <poi x="7943.475653361846" y="8572.878188956958" id="halfendpos_118202" color="255,128,0" type="BusStop" />
  <poi x="4494.941874376596" y="4902.063695478852" id="halfendpos_12601" color="255,128,0" type="BusStop" />
  <poi x="4464.411537784427" y="4891.552059613053" id="halfendpos_12602" color="255,128,0" type="BusStop" />
  <poi x="7439.178625734736" y="1600.083631027112" id="halfendpos_12701" color="255,128,0" type="BusStop" />
  <poi x="7436.244624463727" y="1582.6328796285077" id="halfendpos_12702" color="255,128,0" type="BusStop" />
  <poi x="5607.022841071095" y="4018.814189194133" id="halfendpos_12901" color="255,128,0" type="BusStop" />
  <poi x="5635.202704628023" y="3992.56463645913" id="halfendpos_12902" color="255,128,0" type="BusStop" />
  <poi x="3681.9073523202014" y="4403.489823243466" id="halfendpos_13201" color="255,128,0" type="BusStop" />
  <poi x="3600.640846562486" y="4369.516244913655" id="halfendpos_13202" color="255,128,0" type="BusStop" />
  <poi x="9543.502856796204" y="7991.129549033754" id="halfendpos_13401" color="255,128,0" type="BusStop" />
  <poi x="9560.933026655752" y="8000.061143080506" id="halfendpos_13402" color="255,128,0" type="BusStop" />
  <poi x="7483.177003228978" y="6871.580582127363" id="halfendpos_13501" color="255,128,0" type="BusStop" />
  <poi x="7461.445261097574" y="6860.108859889284" id="halfendpos_13502" color="255,128,0" type="BusStop" />
  <poi x="6539.573294531962" y="1409.69130310268" id="halfendpos_13702" color="255,128,0" type="BusStop" />
  <poi x="3920.291558700601" y="6480.050654625492" id="halfendpos_145901" color="255,128,0" type="BusStop" />
  <poi x="3899.0345874765535" y="6486.210764070579" id="halfendpos_145902" color="255,128,0" type="BusStop" />
  <poi x="6283.194379632552" y="4717.94984344104" id="halfendpos_146701" color="255,128,0" type="BusStop" />
  <poi x="6279.320252774209" y="4719.557537936958" id="halfendpos_146702" color="255,128,0" type="BusStop" />
  <poi x="6440.61565507527" y="5907.300270932771" id="halfendpos_147301" color="255,128,0" type="BusStop" />
  <poi x="6441.1493221158025" y="5869.664624718357" id="halfendpos_147302" color="255,128,0" type="BusStop" />
  <poi x="2461.604210291561" y="4572.613807444461" id="halfendpos_14798" color="255,128,0" type="BusStop" />
  <poi x="2470.561061070294" y="4618.124953120392" id="halfendpos_14799" color="255,128,0" type="BusStop" />
  <poi x="9404.801069735311" y="6546.372768854752" id="halfendpos_148199" color="255,128,0" type="BusStop" />
  <poi x="4111.093005149307" y="6352.415350316559" id="halfendpos_148301" color="255,128,0" type="BusStop" />
  <poi x="4100.018061364525" y="6355.719226808318" id="halfendpos_148302" color="255,128,0" type="BusStop" />
  <poi x="8008.9596573068575" y="4249.198325041367" id="halfendpos_14899" color="255,128,0" type="BusStop" />
  <poi x="3641.042573995714" y="6709.011176945145" id="halfendpos_149299" color="255,128,0" type="BusStop" />
  <poi x="6790.592635120761" y="3572.852288578382" id="halfendpos_156198" color="255,128,0" type="BusStop" />
  <poi x="6801.5597322523545" y="3562.3856934925457" id="halfendpos_156199" color="255,128,0" type="BusStop" />
  <poi x="7091.59670548112" y="7224.988762823583" id="halfendpos_156301" color="255,128,0" type="BusStop" />
  <poi x="6957.939261516567" y="7258.233155550427" id="halfendpos_156302" color="255,128,0" type="BusStop" />
  <poi x="7340.373606016816" y="7008.343310732299" id="halfendpos_156401" color="255,128,0" type="BusStop" />
  <poi x="7341.011385050951" y="6977.474600333088" id="halfendpos_156402" color="255,128,0" type="BusStop" />
  <poi x="6879.045711586699" y="6772.35697258054" id="halfendpos_156501" color="255,128,0" type="BusStop" />
  <poi x="7086.83921449066" y="6840.528165293912" id="halfendpos_156502" color="255,128,0" type="BusStop" />
  <poi x="6371.672677645934" y="3070.410794860049" id="halfendpos_157401" color="255,128,0" type="BusStop" />
  <poi x="6411.767535755661" y="3001.530483966389" id="halfendpos_157402" color="255,128,0" type="BusStop" />
  <poi x="3754.333843363463" y="6690.186907167835" id="halfendpos_159401" color="255,128,0" type="BusStop" />
  <poi x="3718.451092299652" y="6767.671711250389" id="halfendpos_159402" color="255,128,0" type="BusStop" />
  <poi x="6896.058457187452" y="4430.021216114924" id="halfendpos_162401" color="255,128,0" type="BusStop" />
  <poi x="6933.483746267691" y="4430.556142904873" id="halfendpos_162402" color="255,128,0" type="BusStop" />
  <poi x="6838.227213774839" y="3835.4006218575423" id="halfendpos_162598" color="255,128,0" type="BusStop" />
  <poi x="6893.59496669772" y="3900.717894773308" id="halfendpos_162599" color="255,128,0" type="BusStop" />
  <poi x="7238.423744246753" y="4359.471397409853" id="halfendpos_162601" color="255,128,0" type="BusStop" />
  <poi x="7195.6219334180405" y="4323.033467198274" id="halfendpos_162602" color="255,128,0" type="BusStop" />
  <poi x="7197.717642037161" y="4342.996313261108" id="halfendpos_162603" color="255,128,0" type="BusStop" />
  <poi x="6487.667154941278" y="2627.677819201195" id="halfendpos_164801" color="255,128,0" type="BusStop" />
  <poi x="6568.41" y="2552.93" id="halfendpos_164802" color="255,128,0" type="BusStop" />
  <poi x="6510.009069286703" y="2617.3687555043075" id="halfendpos_164803" color="255,128,0" type="BusStop" />
  <poi x="6027.315270125204" y="3082.0817702504864" id="halfendpos_16501" color="255,128,0" type="BusStop" />
  <poi x="6089.802072557675" y="3093.9612714347304" id="halfendpos_16502" color="255,128,0" type="BusStop" />
  <poi x="6415.151222015326" y="5483.620794899605" id="halfendpos_167301" color="255,128,0" type="BusStop" />
  <poi x="6408.405726490631" y="5493.334902531419" id="halfendpos_167302" color="255,128,0" type="BusStop" />
  <poi x="9765.69" y="6827.04" id="halfendpos_167799" color="255,128,0" type="BusStop" />
  <poi x="6705.11534956256" y="4711.623638943898" id="halfendpos_168101" color="255,128,0" type="BusStop" />
  <poi x="6707.59273586944" y="4677.492890287498" id="halfendpos_168102" color="255,128,0" type="BusStop" />
  <poi x="5927.825209489719" y="1872.04959957342" id="halfendpos_173101" color="255,128,0" type="BusStop" />
  <poi x="5965.745815635303" y="1734.0747728827057" id="halfendpos_173102" color="255,128,0" type="BusStop" />
  <poi x="9222.46" y="2801.69" id="halfendpos_17901" color="255,128,0" type="BusStop" />
  <poi x="9176.524891940388" y="2795.822937624382" id="halfendpos_17902" color="255,128,0" type="BusStop" />
  <poi x="7619.072533101958" y="2012.9214734091" id="halfendpos_18001" color="255,128,0" type="BusStop" />
  <poi x="7575.912607995565" y="2003.632030541819" id="halfendpos_18002" color="255,128,0" type="BusStop" />
  <poi x="2640.694530033959" y="5581.426394345751" id="halfendpos_180301" color="255,128,0" type="BusStop" />
  <poi x="2694.20625898738" y="5529.471094621622" id="halfendpos_180302" color="255,128,0" type="BusStop" />
  <poi x="2154.2050352765464" y="7036.768159483049" id="halfendpos_180801" color="255,128,0" type="BusStop" />
  <poi x="2181.89" y="7242.9" id="halfendpos_180802" color="255,128,0" type="BusStop" />
  <poi x="6775.478033740364" y="1849.5100415078969" id="halfendpos_181101" color="255,128,0" type="BusStop" />
  <poi x="6766.323812558474" y="1841.7024567503345" id="halfendpos_181102" color="255,128,0" type="BusStop" />
  <poi x="5157.0801511253085" y="5816.673334286618" id="halfendpos_18301" color="255,128,0" type="BusStop" />
  <poi x="5159.414812336164" y="5759.796322802627" id="halfendpos_18302" color="255,128,0" type="BusStop" />
  <poi x="5147.203775183464" y="5652.097803377126" id="halfendpos_18303" color="255,128,0" type="BusStop" />
  <poi x="5214.311106548003" y="5621.783548533647" id="halfendpos_18304" color="255,128,0" type="BusStop" />
  <poi x="10125.50887332812" y="2556.603992350526" id="halfendpos_184096" color="255,128,0" type="BusStop" />
  <poi x="10113.963715016427" y="2552.7252957197293" id="halfendpos_184097" color="255,128,0" type="BusStop" />
  <poi x="10125.264093590717" y="2524.2786272488797" id="halfendpos_184099" color="255,128,0" type="BusStop" />
  <poi x="6936.832738765316" y="2302.5977871565124" id="halfendpos_184599" color="255,128,0" type="BusStop" />
  <poi x="2443.0093750395117" y="6884.847492829533" id="halfendpos_184601" color="255,128,0" type="BusStop" />
  <poi x="2481.878057659225" y="6857.04156061808" id="halfendpos_184602" color="255,128,0" type="BusStop" />
  <poi x="1716.121023679683" y="8172.103555248354" id="halfendpos_184901" color="255,128,0" type="BusStop" />
  <poi x="1667.4284143319476" y="8189.705135558423" id="halfendpos_184902" color="255,128,0" type="BusStop" />
  <poi x="5644.034539939912" y="6382.220996706184" id="halfendpos_185001" color="255,128,0" type="BusStop" />
  <poi x="5624.402966738368" y="6405.90603385663" id="halfendpos_185002" color="255,128,0" type="BusStop" />
  <poi x="6486.160947846213" y="1724.7795597741865" id="halfendpos_18501" color="255,128,0" type="BusStop" />
  <poi x="6451.241961613095" y="1712.9161786755894" id="halfendpos_18502" color="255,128,0" type="BusStop" />
  <poi x="5245.558956698082" y="6589.96220068519" id="halfendpos_185101" color="255,128,0" type="BusStop" />
  <poi x="5250.68706900889" y="6614.688444405469" id="halfendpos_185102" color="255,128,0" type="BusStop" />
  <poi x="4832.970665731172" y="7623.164172694644" id="halfendpos_185301" color="255,128,0" type="BusStop" />
  <poi x="4875.062632939284" y="7608.443644873836" id="halfendpos_185302" color="255,128,0" type="BusStop" />
  <poi x="7615.009051393784" y="7552.250570796177" id="halfendpos_185699" color="255,128,0" type="BusStop" />
  <poi x="7265.266889661019" y="6051.139410207201" id="halfendpos_18601" color="255,128,0" type="BusStop" />
  <poi x="7192.856665506993" y="6052.363503802645" id="halfendpos_18602" color="255,128,0" type="BusStop" />
  <poi x="8561.737262583385" y="1190.4510004803758" id="halfendpos_186301" color="255,128,0" type="BusStop" />
  <poi x="8665.926530666262" y="1263.3008466894244" id="halfendpos_186302" color="255,128,0" type="BusStop" />
  <poi x="8768.968834485642" y="1394.373860888815" id="halfendpos_186501" color="255,128,0" type="BusStop" />
  <poi x="8733.011849210328" y="1414.467324664392" id="halfendpos_186502" color="255,128,0" type="BusStop" />
  <poi x="8294.91113052437" y="1637.7194091615754" id="halfendpos_186601" color="255,128,0" type="BusStop" />
  <poi x="8460.591990055771" y="1576.5730680733352" id="halfendpos_186602" color="255,128,0" type="BusStop" />
  <poi x="7002.194391233556" y="3378.3373581616206" id="halfendpos_18701" color="255,128,0" type="BusStop" />
  <poi x="7019.95462868482" y="3371.8253275235984" id="halfendpos_18702" color="255,128,0" type="BusStop" />
  <poi x="2711.1033128239865" y="6754.717786941144" id="halfendpos_187401" color="255,128,0" type="BusStop" />
  <poi x="2674.1751550413064" y="6750.851349911405" id="halfendpos_187402" color="255,128,0" type="BusStop" />
  <poi x="4483.26133866179" y="7568.450665900834" id="halfendpos_188401" color="255,128,0" type="BusStop" />
  <poi x="4505.350544312243" y="7629.416645045609" id="halfendpos_188402" color="255,128,0" type="BusStop" />
  <poi x="4530.132304180696" y="7688.505307264534" id="halfendpos_188501" color="255,128,0" type="BusStop" />
  <poi x="4507.453401161582" y="7626.143799890793" id="halfendpos_188502" color="255,128,0" type="BusStop" />
  <poi x="4530.410070498459" y="7231.110967893444" id="halfendpos_188601" color="255,128,0" type="BusStop" />
  <poi x="4526.092075939388" y="7230.0594208658995" id="halfendpos_188602" color="255,128,0" type="BusStop" />
  <poi x="1677.9363924831111" y="5859.652748225725" id="halfendpos_189199" color="255,128,0" type="BusStop" />
  <poi x="1527.1575901642227" y="5603.235186249024" id="halfendpos_189299" color="255,128,0" type="BusStop" />
  <poi x="9496.07809085962" y="6709.471987262368" id="halfendpos_189799" color="255,128,0" type="BusStop" />
  <poi x="7292.462372105114" y="7990.972313882792" id="halfendpos_190101" color="255,128,0" type="BusStop" />
  <poi x="7210.43225189125" y="7971.510195602608" id="halfendpos_190102" color="255,128,0" type="BusStop" />
  <poi x="4309.726472058704" y="7487.022991624099" id="halfendpos_190601" color="255,128,0" type="BusStop" />
  <poi x="4318.834984248933" y="7482.383774439478" id="halfendpos_190602" color="255,128,0" type="BusStop" />
  <poi x="4326.7181176928125" y="7478.124923995285" id="halfendpos_190603" color="255,128,0" type="BusStop" />
  <poi x="4334.332907866559" y="7474.011045580722" id="halfendpos_190604" color="255,128,0" type="BusStop" />
  <poi x="4377.894001196014" y="7430.780639577131" id="halfendpos_190605" color="255,128,0" type="BusStop" />
  <poi x="4368.5880764941" y="7432.713955070946" id="halfendpos_190606" color="255,128,0" type="BusStop" />
  <poi x="4359.060671185527" y="7437.462067652402" id="halfendpos_190607" color="255,128,0" type="BusStop" />
  <poi x="4350.99661089147" y="7441.480902256339" id="halfendpos_190608" color="255,128,0" type="BusStop" />
  <poi x="7053.144509510502" y="2900.043288500025" id="halfendpos_19701" color="255,128,0" type="BusStop" />
  <poi x="7032.216425125576" y="2985.4566638642377" id="halfendpos_19702" color="255,128,0" type="BusStop" />
  <poi x="6753.184489497992" y="5122.725250288492" id="halfendpos_20101" color="255,128,0" type="BusStop" />
  <poi x="6767.162065172786" y="5096.347023273834" id="halfendpos_20102" color="255,128,0" type="BusStop" />
  <poi x="7380.17129961664" y="1273.5816549575538" id="halfendpos_20201" color="255,128,0" type="BusStop" />
  <poi x="7380.887402142768" y="1263.431423979244" id="halfendpos_20202" color="255,128,0" type="BusStop" />
  <poi x="4737.494943009248" y="5434.882480004901" id="halfendpos_20401" color="255,128,0" type="BusStop" />
  <poi x="4693.814667211954" y="5497.390711786113" id="halfendpos_20402" color="255,128,0" type="BusStop" />
  <poi x="2200.2370225239765" y="7649.459270525241" id="halfendpos_21401" color="255,128,0" type="BusStop" />
  <poi x="2167.55" y="7660.66" id="halfendpos_21402" color="255,128,0" type="BusStop" />
  <poi x="2158.5951148378194" y="6321.371122985155" id="halfendpos_21601" color="255,128,0" type="BusStop" />
  <poi x="2152.947607637965" y="6409.763302119361" id="halfendpos_21602" color="255,128,0" type="BusStop" />
  <poi x="4138.9665549387255" y="6000.082420992505" id="halfendpos_23101" color="255,128,0" type="BusStop" />
  <poi x="4174.907838550676" y="5998.9308963412" id="halfendpos_23102" color="255,128,0" type="BusStop" />
  <poi x="7569.354914749968" y="4918.25095797023" id="halfendpos_23201" color="255,128,0" type="BusStop" />
  <poi x="7623.959465233989" y="4927.779745975626" id="halfendpos_23202" color="255,128,0" type="BusStop" />
  <poi x="7383.54276276792" y="5366.917492474344" id="halfendpos_23301" color="255,128,0" type="BusStop" />
  <poi x="7504.956989922378" y="5382.837781785172" id="halfendpos_23302" color="255,128,0" type="BusStop" />
  <poi x="3031.816983680925" y="5443.419832493555" id="halfendpos_2399" color="255,128,0" type="BusStop" />
  <poi x="7698.584907789136" y="1909.4041695443127" id="halfendpos_24101" color="255,128,0" type="BusStop" />
  <poi x="7726.397636922118" y="1902.751931224544" id="halfendpos_24102" color="255,128,0" type="BusStop" />
  <poi x="7626.52" y="6969.24" id="halfendpos_24701" color="255,128,0" type="BusStop" />
  <poi x="7619.947809192652" y="6936.640084758729" id="halfendpos_24702" color="255,128,0" type="BusStop" />
  <poi x="7922.459966077192" y="6184.935371994277" id="halfendpos_25999" color="255,128,0" type="BusStop" />
  <poi x="8101.855583131748" y="5348.093475524534" id="halfendpos_26299" color="255,128,0" type="BusStop" />
  <poi x="10172.186367670129" y="5564.605113691129" id="halfendpos_26601" color="255,128,0" type="BusStop" />
  <poi x="10118.251133678135" y="5557.659751377943" id="halfendpos_26602" color="255,128,0" type="BusStop" />
  <poi x="4059.3336421287854" y="4856.245361834636" id="halfendpos_27801" color="255,128,0" type="BusStop" />
  <poi x="3972.060818210544" y="4852.294778658316" id="halfendpos_27802" color="255,128,0" type="BusStop" />
  <poi x="7297.328736256325" y="2224.048647613741" id="halfendpos_28201" color="255,128,0" type="BusStop" />
  <poi x="7339.998028996988" y="2160.889205598048" id="halfendpos_28202" color="255,128,0" type="BusStop" />
  <poi x="5666.835038346611" y="4624.01654119648" id="halfendpos_28401" color="255,128,0" type="BusStop" />
  <poi x="5662.306525091802" y="4625.832107764409" id="halfendpos_28402" color="255,128,0" type="BusStop" />
  <poi x="3039.979284993984" y="4287.114996968224" id="halfendpos_28601" color="255,128,0" type="BusStop" />
  <poi x="3141.7833497773618" y="4260.319504927555" id="halfendpos_28602" color="255,128,0" type="BusStop" />
  <poi x="6183.7087034064825" y="3361.3877078371283" id="halfendpos_28701" color="255,128,0" type="BusStop" />
  <poi x="6186.460104207585" y="3346.5567027118914" id="halfendpos_28702" color="255,128,0" type="BusStop" />
  <poi x="4499.895782338916" y="4599.020504101592" id="halfendpos_29101" color="255,128,0" type="BusStop" />
  <poi x="4548.335826061512" y="4601.253185957156" id="halfendpos_29102" color="255,128,0" type="BusStop" />
  <poi x="4037.289925893561" y="5678.105712932764" id="halfendpos_30499" color="255,128,0" type="BusStop" />
  <poi x="6397.0808632168055" y="5028.311328667585" id="halfendpos_30701" color="255,128,0" type="BusStop" />
  <poi x="7179.850551092341" y="4828.965432177314" id="halfendpos_30801" color="255,128,0" type="BusStop" />
  <poi x="7183.682743438971" y="4833.627739095979" id="halfendpos_30802" color="255,128,0" type="BusStop" />
  <poi x="5414.545363920732" y="5662.7872819920085" id="halfendpos_30901" color="255,128,0" type="BusStop" />
  <poi x="7383.068808402083" y="6435.550730773814" id="halfendpos_31301" color="255,128,0" type="BusStop" />
  <poi x="7376.687111038745" y="6362.507860865386" id="halfendpos_31302" color="255,128,0" type="BusStop" />
  <poi x="4414.394857075413" y="5510.424293672091" id="halfendpos_3202" color="255,128,0" type="BusStop" />
  <poi x="4655.269439314099" y="5358.106889954221" id="halfendpos_32501" color="255,128,0" type="BusStop" />
  <poi x="1949.8952399616264" y="5543.205158341551" id="halfendpos_34002" color="255,128,0" type="BusStop" />
  <poi x="2019.118240878504" y="5591.385088986591" id="halfendpos_34098" color="255,128,0" type="BusStop" />
  <poi x="2022.3793134507507" y="5591.577528534037" id="halfendpos_34099" color="255,128,0" type="BusStop" />
  <poi x="9689.651592844357" y="2966.743864281452" id="halfendpos_34101" color="255,128,0" type="BusStop" />
  <poi x="9693.303919083406" y="2971.339440081343" id="halfendpos_34102" color="255,128,0" type="BusStop" />
  <poi x="6742.314020557947" y="6803.246054182461" id="halfendpos_3501" color="255,128,0" type="BusStop" />
  <poi x="6760.513147993976" y="6799.466588482698" id="halfendpos_3502" color="255,128,0" type="BusStop" />
  <poi x="8484.20421946459" y="3562.0388640825727" id="halfendpos_3801" color="255,128,0" type="BusStop" />
  <poi x="8579.091474361565" y="3562.0088338137784" id="halfendpos_3802" color="255,128,0" type="BusStop" />
  <poi x="4348.678325116274" y="5511.225781125337" id="halfendpos_38201" color="255,128,0" type="BusStop" />
  <poi x="2509.296963206194" y="5027.660716605846" id="halfendpos_39001" color="255,128,0" type="BusStop" />
  <poi x="2507.7162169727453" y="5015.186103343829" id="halfendpos_39002" color="255,128,0" type="BusStop" />
  <poi x="2214.268159645833" y="5630.88356249754" id="halfendpos_3901" color="255,128,0" type="BusStop" />
  <poi x="2195.750983348036" y="5712.51818661633" id="halfendpos_3902" color="255,128,0" type="BusStop" />
  <poi x="2503.5987171361385" y="4969.813740158795" id="halfendpos_39099" color="255,128,0" type="BusStop" />
  <poi x="7054.906157619379" y="5496.815547097312" id="halfendpos_39601" color="255,128,0" type="BusStop" />
  <poi x="7060.00653057615" y="5529.389110251512" id="halfendpos_39602" color="255,128,0" type="BusStop" />
  <poi x="9529.47701002249" y="3536.0262003362377" id="halfendpos_4001" color="255,128,0" type="BusStop" />
  <poi x="9597.573032432394" y="3538.1024990459728" id="halfendpos_4002" color="255,128,0" type="BusStop" />
  <poi x="9825.300496747484" y="7718.510018523475" id="halfendpos_41801" color="255,128,0" type="BusStop" />
  <poi x="5176.935347588928" y="4557.23442893355" id="halfendpos_42501" color="255,128,0" type="BusStop" />
  <poi x="5180.326503195033" y="4558.635463424514" id="halfendpos_42502" color="255,128,0" type="BusStop" />
  <poi x="4782.416372854693" y="5673.949388930266" id="halfendpos_42601" color="255,128,0" type="BusStop" />
  <poi x="7783.331713872406" y="5388.954224580284" id="halfendpos_42701" color="255,128,0" type="BusStop" />
  <poi x="7765.367094712974" y="5346.933675152081" id="halfendpos_42702" color="255,128,0" type="BusStop" />
  <poi x="7923.57591760779" y="5408.402017249595" id="halfendpos_42704" color="255,128,0" type="BusStop" />
  <poi x="5094.987538072358" y="6047.3704309922605" id="halfendpos_43001" color="255,128,0" type="BusStop" />
  <poi x="5081.991680326605" y="6055.290556011214" id="halfendpos_43002" color="255,128,0" type="BusStop" />
  <poi x="5459.423424186197" y="5633.406473237528" id="halfendpos_44302" color="255,128,0" type="BusStop" />
  <poi x="4901.594532966423" y="6056.678880959067" id="halfendpos_44701" color="255,128,0" type="BusStop" />
  <poi x="4862.732702095681" y="6032.391993438495" id="halfendpos_44702" color="255,128,0" type="BusStop" />
  <poi x="6697.951203509497" y="6243.9243041919" id="halfendpos_44801" color="255,128,0" type="BusStop" />
  <poi x="6625.8075162635805" y="6261.583551471248" id="halfendpos_44802" color="255,128,0" type="BusStop" />
  <poi x="2250.826166927286" y="5180.867932930397" id="halfendpos_46201" color="255,128,0" type="BusStop" />
  <poi x="2241.06738750012" y="5174.667950060651" id="halfendpos_46202" color="255,128,0" type="BusStop" />
  <poi x="7040.277518181374" y="4070.711323884889" id="halfendpos_46501" color="255,128,0" type="BusStop" />
  <poi x="6097.509522050503" y="2612.1988708058134" id="halfendpos_46701" color="255,128,0" type="BusStop" />
  <poi x="6102.63434788448" y="2605.275229785382" id="halfendpos_46702" color="255,128,0" type="BusStop" />
  <poi x="4686.260995820027" y="3973.368452316848" id="halfendpos_46801" color="255,128,0" type="BusStop" />
  <poi x="4664.591051186539" y="3931.9914479787462" id="halfendpos_46802" color="255,128,0" type="BusStop" />
  <poi x="9875.877460637395" y="5501.129621796046" id="halfendpos_47301" color="255,128,0" type="BusStop" />
  <poi x="9890.830303498546" y="5511.496705349607" id="halfendpos_47302" color="255,128,0" type="BusStop" />
  <poi x="7978.988771565542" y="1787.4117224560314" id="halfendpos_5001" color="255,128,0" type="BusStop" />
  <poi x="7912.449105911312" y="1827.316733844437" id="halfendpos_5002" color="255,128,0" type="BusStop" />
  <poi x="4446.941852457124" y="6742.464901567665" id="halfendpos_501" color="255,128,0" type="BusStop" />
  <poi x="4497.736546591408" y="6796.360771130301" id="halfendpos_502" color="255,128,0" type="BusStop" />
  <poi x="9155.131857639351" y="5158.147184561916" id="halfendpos_50501" color="255,128,0" type="BusStop" />
  <poi x="9222.46641631183" y="5178.653834933834" id="halfendpos_50502" color="255,128,0" type="BusStop" />
  <poi x="7207.199295715531" y="1169.4096197961678" id="halfendpos_50899" color="255,128,0" type="BusStop" />
  <poi x="6075.615128744238" y="2109.1658970283106" id="halfendpos_51201" color="255,128,0" type="BusStop" />
  <poi x="6015.611759325068" y="2107.994289704216" id="halfendpos_51202" color="255,128,0" type="BusStop" />
  <poi x="5778.61790767288" y="2992.1164491745667" id="halfendpos_51601" color="255,128,0" type="BusStop" />
  <poi x="5821.102726388689" y="3003.436926763643" id="halfendpos_51602" color="255,128,0" type="BusStop" />
  <poi x="8763.945025347135" y="2703.705055590448" id="halfendpos_51901" color="255,128,0" type="BusStop" />
  <poi x="8780.908290722922" y="2709.303978878898" id="halfendpos_51902" color="255,128,0" type="BusStop" />
  <poi x="4874.320902290687" y="5645.378435413313" id="halfendpos_52602" color="255,128,0" type="BusStop" />
  <poi x="9909.627293628357" y="1261.8664228217635" id="halfendpos_53999" color="255,128,0" type="BusStop" />
  <poi x="6264.691489042341" y="5437.261743911648" id="halfendpos_54393" color="255,128,0" type="BusStop" />
  <poi x="6289.85708090205" y="5440.369194181069" id="halfendpos_54395" color="255,128,0" type="BusStop" />
  <poi x="6308.550771583646" y="5417.629974910759" id="halfendpos_54396" color="255,128,0" type="BusStop" />
  <poi x="6305.100903777334" y="5417.057896826178" id="halfendpos_54397" color="255,128,0" type="BusStop" />
  <poi x="6301.044472291919" y="5429.075931236387" id="halfendpos_54398" color="255,128,0" type="BusStop" />
  <poi x="6289.27001040808" y="5389.387386663912" id="halfendpos_54399" color="255,128,0" type="BusStop" />
  <poi x="4419.859167858062" y="6286.507770640303" id="halfendpos_54401" color="255,128,0" type="BusStop" />
  <poi x="4419.619031003685" y="6290.18785145734" id="halfendpos_54402" color="255,128,0" type="BusStop" />
  <poi x="6582.222344488458" y="5258.632816715464" id="halfendpos_54702" color="255,128,0" type="BusStop" />
  <poi x="6744.595355642387" y="5988.015164916503" id="halfendpos_55101" color="255,128,0" type="BusStop" />
  <poi x="6766.6080182799205" y="6093.496350026788" id="halfendpos_55102" color="255,128,0" type="BusStop" />
  <poi x="6952.734921452022" y="7794.356791681843" id="halfendpos_55202" color="255,128,0" type="BusStop" />
  <poi x="6315.516313049724" y="1341.9810886060416" id="halfendpos_56402" color="255,128,0" type="BusStop" />
  <poi x="2045.9563054560217" y="5342.556712956098" id="halfendpos_57201" color="255,128,0" type="BusStop" />
  <poi x="2041.4960898889208" y="5312.557229721451" id="halfendpos_57202" color="255,128,0" type="BusStop" />
  <poi x="7176.124087321059" y="2568.834928876454" id="halfendpos_57301" color="255,128,0" type="BusStop" />
  <poi x="7236.572271058721" y="2389.921238993661" id="halfendpos_57302" color="255,128,0" type="BusStop" />
  <poi x="7821.178040250753" y="4190.473490034043" id="halfendpos_57401" color="255,128,0" type="BusStop" />
  <poi x="7826.86158335925" y="4190.67389429943" id="halfendpos_57402" color="255,128,0" type="BusStop" />
  <poi x="7625.780511021935" y="6033.341074814231" id="halfendpos_57701" color="255,128,0" type="BusStop" />
  <poi x="7732.790818182359" y="6024.368128672119" id="halfendpos_57702" color="255,128,0" type="BusStop" />
  <poi x="7658.484020123999" y="6018.1121258734665" id="halfendpos_57703" color="255,128,0" type="BusStop" />
  <poi x="3619.9081946027886" y="4968.323852224662" id="halfendpos_57801" color="255,128,0" type="BusStop" />
  <poi x="3585.487695299345" y="4964.83025305855" id="halfendpos_57802" color="255,128,0" type="BusStop" />
  <poi x="6862.4055929317865" y="5331.052188507052" id="halfendpos_57901" color="255,128,0" type="BusStop" />
  <poi x="6922.334512903791" y="5368.569420647412" id="halfendpos_57902" color="255,128,0" type="BusStop" />
  <poi x="4046.5919934625263" y="5850.698950564774" id="halfendpos_58002" color="255,128,0" type="BusStop" />
  <poi x="7209.036638618329" y="3549.2357973422813" id="halfendpos_58101" color="255,128,0" type="BusStop" />
  <poi x="7194.579649459004" y="3531.1493516049622" id="halfendpos_58102" color="255,128,0" type="BusStop" />
  <poi x="4539.616566769802" y="6027.8653151229455" id="halfendpos_58401" color="255,128,0" type="BusStop" />
  <poi x="4589.108408262034" y="6064.722006057503" id="halfendpos_58402" color="255,128,0" type="BusStop" />
  <poi x="7610.932517197287" y="3422.445814970989" id="halfendpos_59301" color="255,128,0" type="BusStop" />
  <poi x="7674.314665238152" y="3396.577213924439" id="halfendpos_59302" color="255,128,0" type="BusStop" />
  <poi x="9684.1" y="1167.72" id="halfendpos_59601" color="255,128,0" type="BusStop" />