<additional>
  <poi x="6721.71" y="1749.04" id="offset_0_101" color="128,0,255" type="BusStop" />
  <poi x="6742.56" y="1719.42" id="offset_0_102" color="128,0,255" type="BusStop" />
  <poi x="9610.73" y="3183.17" id="offset_0_103401" color="128,0,255" type="BusStop" />
  <poi x="9634.67" y="3365.06" id="offset_0_103402" color="128,0,255" type="BusStop" />
  <poi x="3731.83" y="5265.05" id="offset_0_104201" color="128,0,255" type="BusStop" />
  <poi x="3693.32" y="5269.38" id="offset_0_104203" color="128,0,255" type="BusStop" />
  <poi x="9155.58" y="1884.64" id="offset_0_10599" color="128,0,255" type="BusStop" />
  <poi x="7437.98" y="4364.79" id="offset_0_10801" color="128,0,255" type="BusStop" />
  <poi x="7502.54" y="4217.81" id="offset_0_10802" color="128,0,255" type="BusStop" />
  <poi x="4748.55" y="4225.57" id="offset_0_10902" color="128,0,255" type="BusStop" />
  <poi x="6190.27" y="3954.34" id="offset_0_11001" color="128,0,255" type="BusStop" />
  <poi x="6216.1" y="3952.04" id="offset_0_11002" color="128,0,255" type="BusStop" />
  <poi x="7409.7" y="3139.35" id="offset_0_11301" color="128,0,255" type="BusStop" />
  <poi x="7465.21" y="3111.45" id="offset_0_11302" color="128,0,255" type="BusStop" />
  <poi x="9420.85" y="2067.56" id="offset_0_11499" color="128,0,255" type="BusStop" />
  <poi x="7795.82" y="8264.12" id="offset_0_118201" color="128,0,255" type="BusStop" />
  <poi x="8041.34" y="8764.3" id="offset_0_118202" color="128,0,255" type="BusStop" />
  <poi x="4528.18" y="4905.9" id="offset_0_12601" color="128,0,255" type="BusStop" />
  <poi x="4455.02" y="4890.26" id="offset_0_12602" color="128,0,255" type="BusStop" />
  <poi x="7446.57" y="1619.51" id="offset_0_12701" color="128,0,255" type="BusStop" />
  <poi x="7427.87" y="1559.21" id="offset_0_12702" color="128,0,255" type="BusStop" />
  <poi x="5594.99" y="4031.19" id="offset_0_12901" color="128,0,255" type="BusStop" />
  <poi x="5644.32" y="3982.69" id="offset_0_12902" color="128,0,255" type="BusStop" />
  <poi x="3719.7" y="4414.54" id="offset_0_13201" color="128,0,255" type="BusStop" />
  <poi x="3584.85" y="4362.22" id="offset_0_13202" color="128,0,255" type="BusStop" />
  <poi x="9507.58" y="7981.49" id="offset_0_13401" color="128,0,255" type="BusStop" />
  <poi x="9622.69" y="8011.43" id="offset_0_13402" color="128,0,255" type="BusStop" />
  <poi x="7473.2" y="6872.09" id="offset_0_13501" color="128,0,255" type="BusStop" />
  <poi x="7462.11" y="6867.75" id="offset_0_13502" color="128,0,255" type="BusStop" />
  <poi x="6535.02" y="1414.33" id="offset_0_13702" color="128,0,255" type="BusStop" />
  <poi x="3951.05" y="6459.36" id="offset_0_145901" color="128,0,255" type="BusStop" />
  <poi x="3946.84" y="6453.06" id="offset_0_145902" color="128,0,255" type="BusStop" />
  <poi x="6287.98" y="4703.06" id="offset_0_146701" color="128,0,255" type="BusStop" />
  <poi x="6274.55" y="4733.15" id="offset_0_146702" color="128,0,255" type="BusStop" />
  <poi x="6442.78" y="5917.37" id="offset_0_147301" color="128,0,255" type="BusStop" />
  <poi x="6437.65" y="5832.12" id="offset_0_147302" color="128,0,255" type="BusStop" />
  <poi x="2463.59" y="4589.15" id="offset_0_14798" color="128,0,255" type="BusStop" />
  <poi x="2468.48" y="4602.14" id="offset_0_14799" color="128,0,255" type="BusStop" />
  <poi x="9389.49" y="6551.65" id="offset_0_148199" color="128,0,255" type="BusStop" />
  <poi x="4117.12" y="6348.55" id="offset_0_148301" color="128,0,255" type="BusStop" />
  <poi x="4087.52" y="6363.73" id="offset_0_148302" color="128,0,255" type="BusStop" />
  <poi x="7961.57" y="4272.87" id="offset_0_14899" color="128,0,255" type="BusStop" />
  <poi x="3688.87" y="6730.88" id="offset_0_149299" color="128,0,255" type="BusStop" />
  <poi x="6769.15" y="3603.67" id="offset_0_156198" color="128,0,255" type="BusStop" />
  <poi x="6816.05" y="3541.77" id="offset_0_156199" color="128,0,255" type="BusStop" />
  <poi x="7131.96" y="7197.43" id="offset_0_156301" color="128,0,255" type="BusStop" />
  <poi x="6929.08" y="7268.91" id="offset_0_156302" color="128,0,255" type="BusStop" />
  <poi x="7344.0" y="6994.59" id="offset_0_156401" color="128,0,255" type="BusStop" />
  <poi x="7341.58" y="6985.91" id="offset_0_156402" color="128,0,255" type="BusStop" />
  <poi x="6789.56" y="6787.0" id="offset_0_156501" color="128,0,255" type="BusStop" />
  <poi x="7137.8" y="6860.0" id="offset_0_156502" color="128,0,255" type="BusStop" />
  <poi x="6361.56" y="3101.35" id="offset_0_157401" color="128,0,255" type="BusStop" />
  <poi x="6421.62" y="2973.56" id="offset_0_157402" color="128,0,255" type="BusStop" />
  <poi x="3759.82" y="6677.16" id="offset_0_159401" color="128,0,255" type="BusStop" />
  <poi x="3713.18" y="6780.29" id="offset_0_159402" color="128,0,255" type="BusStop" />
  <poi x="6867.97" y="4428.23" id="offset_0_162401" color="128,0,255" type="BusStop" />
  <poi x="6966.42" y="4423.98" id="offset_0_162402" color="128,0,255" type="BusStop" />
  <poi x="6849.58" y="3854.42" id="offset_0_162598" color="128,0,255" type="BusStop" />
  <poi x="6878.2" y="3873.16" id="offset_0_162599" color="128,0,255" type="BusStop" />
  <poi x="7218.75" y="4361.47" id="offset_0_162601" color="128,0,255" type="BusStop" />
  <poi x="7187.11" y="4295.63" id="offset_0_162602" color="128,0,255" type="BusStop" />
  <poi x="7201.13" y="4356.44" id="offset_0_162603" color="128,0,255" type="BusStop" />
  <poi x="6498.72" y="2631.03" id="offset_0_164801" color="128,0,255" type="BusStop" />
  <poi x="6572.34" y="2549.06" id="offset_0_164802" color="128,0,255" type="BusStop" />
  <poi x="6506.9" y="2629.94" id="offset_0_164803" color="128,0,255" type="BusStop" />
  <poi x="6038.98" y="3082.85" id="offset_0_16501" color="128,0,255" type="BusStop" />
  <poi x="6080.65" y="3087.25" id="offset_0_16502" color="128,0,255" type="BusStop" />
  <poi x="6421.62" y="5469.79" id="offset_0_167301" color="128,0,255" type="BusStop" />
  <poi x="6404.34" y="5504.97" id="offset_0_167302" color="128,0,255" type="BusStop" />
  <poi x="9759.43" y="6829.06" id="offset_0_167799" color="128,0,255" type="BusStop" />
  <poi x="6706.99" y="4700.09" id="offset_0_168101" color="128,0,255" type="BusStop" />
  <poi x="6705.81" y="4687.81" id="offset_0_168102" color="128,0,255" type="BusStop" />
  <poi x="5917.55" y="1908.13" id="offset_0_173101" color="128,0,255" type="BusStop" />
  <poi x="5986.27" y="1632.2" id="offset_0_173102" color="128,0,255" type="BusStop" />
  <poi x="9220.4" y="2800.93" id="offset_0_17901" color="128,0,255" type="BusStop" />
  <poi x="9189.07" y="2800.27" id="offset_0_17902" color="128,0,255" type="BusStop" />
  <poi x="7653.06" y="2017.96" id="offset_0_18001" color="128,0,255" type="BusStop" />
  <poi x="7557.07" y="1996.59" id="offset_0_18002" color="128,0,255" type="BusStop" />
  <poi x="2620.42" y="5607.95" id="offset_0_180301" color="128,0,255" type="BusStop" />
  <poi x="2703.21" y="5518.01" id="offset_0_180302" color="128,0,255" type="BusStop" />
  <poi x="2141.39" y="6942.61" id="offset_0_180801" color="128,0,255" type="BusStop" />
  <poi x="2182.58" y="7246.89" id="offset_0_180802" color="128,0,255" type="BusStop" />
  <poi x="6781.54" y="1852.34" id="offset_0_181101" color="128,0,255" type="BusStop" />
  <poi x="6749.77" y="1834.02" id="offset_0_181102" color="128,0,255" type="BusStop" />
  <poi x="5160.24" y="5803.41" id="offset_0_18301" color="128,0,255" type="BusStop" />
  <poi x="5153.56" y="5788.24" id="offset_0_18302" color="128,0,255" type="BusStop" />
  <poi x="5163.09" y="5650.73" id="offset_0_18303" color="128,0,255" type="BusStop" />
  <poi x="5197.34" y="5621.42" id="offset_0_18304" color="128,0,255" type="BusStop" />
  <poi x="10142.27" y="2553.54" id="offset_0_184096" color="128,0,255" type="BusStop" />
  <poi x="10142.27" y="2553.54" id="offset_0_184097" color="128,0,255" type="BusStop" />
  <poi x="10092.78" y="2511.88" id="offset_0_184099" color="128,0,255" type="BusStop" />
  <poi x="6948.57" y="2286.62" id="offset_0_184599" color="128,0,255" type="BusStop" />
  <poi x="2476.98" y="6883.7" id="offset_0_184601" color="128,0,255" type="BusStop" />
  <poi x="2482.36" y="6874.74" id="offset_0_184602" color="128,0,255" type="BusStop" />
  <poi x="1758.95" y="8153.55" id="offset_0_184901" color="128,0,255" type="BusStop" />
  <poi x="1649.36" y="8197.53" id="offset_0_184902" color="128,0,255" type="BusStop" />
  <poi x="5660.2" y="6357.94" id="offset_0_185001" color="128,0,255" type="BusStop" />
  <poi x="5618.43" y="6414.88" id="offset_0_185002" color="128,0,255" type="BusStop" />
  <poi x="6512.07" y="1732.25" id="offset_0_18501" color="128,0,255" type="BusStop" />
  <poi x="6418.37" y="1705.56" id="offset_0_18502" color="128,0,255" type="BusStop" />
  <poi x="5241.7" y="6583.86" id="offset_0_185101" color="128,0,255" type="BusStop" />
  <poi x="5264.71" y="6637.48" id="offset_0_185102" color="128,0,255" type="BusStop" />
  <poi x="4792.59" y="7640.45" id="offset_0_185301" color="128,0,255" type="BusStop" />
  <poi x="4887.33" y="7602.33" id="offset_0_185302" color="128,0,255" type="BusStop" />
  <poi x="7610.14" y="7539.26" id="offset_0_185699" color="128,0,255" type="BusStop" />
  <poi x="7301.39" y="6044.83" id="offset_0_18601" color="128,0,255" type="BusStop" />
  <poi x="7139.15" y="6063.82" id="offset_0_18602" color="128,0,255" type="BusStop" />
  <poi x="8548.65" y="1172.68" id="offset_0_186301" color="128,0,255" type="BusStop" />
  <poi x="8687.71" y="1272.46" id="offset_0_186302" color="128,0,255" type="BusStop" />
  <poi x="8745.95" y="1403.47" id="offset_0_186501" color="128,0,255" type="BusStop" />
  <poi x="8744.8" y="1407.62" id="offset_0_186502" color="128,0,255" type="BusStop" />
  <poi x="8284.25" y="1641.48" id="offset_0_186601" color="128,0,255" type="BusStop" />
  <poi x="8598.15" y="1508.36" id="offset_0_186602" color="128,0,255" type="BusStop" />
  <poi x="6971.66" y="3395.86" id="offset_0_18701" color="128,0,255" type="BusStop" />
  <poi x="7034.31" y="3363.49" id="offset_0_18702" color="128,0,255" type="BusStop" />
  <poi x="2734.75" y="6754.93" id="offset_0_187401" color="128,0,255" type="BusStop" />
  <poi x="2613.69" y="6749.76" id="offset_0_187402" color="128,0,255" type="BusStop" />
  <poi x="4480.01" y="7560.7" id="offset_0_188401" color="128,0,255" type="BusStop" />
  <poi x="4532.42" y="7693.96" id="offset_0_188402" color="128,0,255" type="BusStop" />
  <poi x="4532.42" y="7693.96" id="offset_0_188501" color="128,0,255" type="BusStop" />
  <poi x="4480.01" y="7560.7" id="offset_0_188502" color="128,0,255" type="BusStop" />
  <poi x="4536.92" y="7226.98" id="offset_0_188601" color="128,0,255" type="BusStop" />
  <poi x="4519.23" y="7234.41" id="offset_0_188602" color="128,0,255" type="BusStop" />
  <poi x="1721.88" y="5846.43" id="offset_0_189199" color="128,0,255" type="BusStop" />
  <poi x="1508.48" y="5871.64" id="offset_0_189299" color="128,0,255" type="BusStop" />
  <poi x="9530.23" y="6697.62" id="offset_0_189799" color="128,0,255" type="BusStop" />
  <poi x="7270.98" y="7985.85" id="offset_0_190101" color="128,0,255" type="BusStop" />
  <poi x="7264.4" y="7990.77" id="offset_0_190102" color="128,0,255" type="BusStop" />
  <poi x="4297.48" y="7492.88" id="offset_0_190601" color="128,0,255" type="BusStop" />
  <poi x="4297.48" y="7492.88" id="offset_0_190602" color="128,0,255" type="BusStop" />
  <poi x="4297.48" y="7492.88" id="offset_0_190603" color="128,0,255" type="BusStop" />
  <poi x="4297.48" y="7492.88" id="offset_0_190604" color="128,0,255" type="BusStop" />
  <poi x="4376.52" y="7451.22" id="offset_0_190605" color="128,0,255" type="BusStop" />
  <poi x="4376.52" y="7451.22" id="offset_0_190606" color="128,0,255" type="BusStop" />
  <poi x="4376.52" y="7451.22" id="offset_0_190607" color="128,0,255" type="BusStop" />
  <poi x="4376.52" y="7451.22" id="offset_0_190608" color="128,0,255" type="BusStop" />
  <poi x="7041.0" y="2942.89" id="offset_0_19701" color="128,0,255" type="BusStop" />
  <poi x="7038.63" y="2962.48" id="offset_0_19702" color="128,0,255" type="BusStop" />
  <poi x="6745.96" y="5166.27" id="offset_0_20101" color="128,0,255" type="BusStop" />
  <poi x="6772.26" y="5064.7" id="offset_0_20102" color="128,0,255" type="BusStop" />
  <poi x="7389.03" y="1321.47" id="offset_0_20201" color="128,0,255" type="BusStop" />
  <poi x="7372.87" y="1231.9" id="offset_0_20202" color="128,0,255" type="BusStop" />
  <poi x="4779.23" y="5390.5" id="offset_0_20401" color="128,0,255" type="BusStop" />
  <poi x="4672.38" y="5544.36" id="offset_0_20402" color="128,0,255" type="BusStop" />
  <poi x="2212.24" y="7639.2" id="offset_0_21401" color="128,0,255" type="BusStop" />
  <poi x="2163.7" y="7662.09" id="offset_0_21402" color="128,0,255" type="BusStop" />
  <poi x="2159.87" y="6278.33" id="offset_0_21601" color="128,0,255" type="BusStop" />
  <poi x="2152.69" y="6419.81" id="offset_0_21602" color="128,0,255" type="BusStop" />
  <poi x="4147.85" y="6009.56" id="offset_0_23101" color="128,0,255" type="BusStop" />
  <poi x="4160.99" y="6009.49" id="offset_0_23102" color="128,0,255" type="BusStop" />
  <poi x="7552.67" y="4916.47" id="offset_0_23201" color="128,0,255" type="BusStop" />
  <poi x="7688.42" y="4939.46" id="offset_0_23202" color="128,0,255" type="BusStop" />
  <poi x="7341.85" y="5368.68" id="offset_0_23301" color="128,0,255" type="BusStop" />
  <poi x="7595.18" y="5387.99" id="offset_0_23302" color="128,0,255" type="BusStop" />
  <poi x="3031.87" y="5435.03" id="offset_0_2399" color="128,0,255" type="BusStop" />
  <poi x="7645.33" y="1928.47" id="offset_0_24101" color="128,0,255" type="BusStop" />
  <poi x="7770.17" y="1887.09" id="offset_0_24102" color="128,0,255" type="BusStop" />
  <poi x="7625.83" y="6962.49" id="offset_0_24701" color="128,0,255" type="BusStop" />
  <poi x="7621.59" y="6952.45" id="offset_0_24702" color="128,0,255" type="BusStop" />
  <poi x="7913.52" y="6184.96" id="offset_0_25999" color="128,0,255" type="BusStop" />
  <poi x="8100.47" y="5364.48" id="offset_0_26299" color="128,0,255" type="BusStop" />
  <poi x="10144.74" y="5559.43" id="offset_0_26601" color="128,0,255" type="BusStop" />
  <poi x="10130.63" y="5560.01" id="offset_0_26602" color="128,0,255" type="BusStop" />
  <poi x="4070.47" y="4856.89" id="offset_0_27801" color="128,0,255" type="BusStop" />
  <poi x="3954.21" y="4853.4" id="offset_0_27802" color="128,0,255" type="BusStop" />
  <poi x="7279.26" y="2267.48" id="offset_0_28201" color="128,0,255" type="BusStop" />
  <poi x="7350.88" y="2148.52" id="offset_0_28202" color="128,0,255" type="BusStop" />
  <poi x="5671.3" y="4615.49" id="offset_0_28401" color="128,0,255" type="BusStop" />
  <poi x="5656.21" y="4637.72" id="offset_0_28402" color="128,0,255" type="BusStop" />
  <poi x="3045.16" y="4285.8" id="offset_0_28601" color="128,0,255" type="BusStop" />
  <poi x="3135.76" y="4261.11" id="offset_0_28602" color="128,0,255" type="BusStop" />
  <poi x="6183.91" y="3369.04" id="offset_0_28701" color="128,0,255" type="BusStop" />
  <poi x="6185.92" y="3328.98" id="offset_0_28702" color="128,0,255" type="BusStop" />
  <poi x="4520.22" y="4601.92" id="offset_0_29101" color="128,0,255" type="BusStop" />
  <poi x="4533.38" y="4600.17" id="offset_0_29102" color="128,0,255" type="BusStop" />
  <poi x="4037.18" y="5686.58" id="offset_0_30499" color="128,0,255" type="BusStop" />
  <poi x="6366.68" y="5000.42" id="offset_0_30701" color="128,0,255" type="BusStop" />
  <poi x="7153.85" y="4820.88" id="offset_0_30801" color="128,0,255" type="BusStop" />
  <poi x="7207.74" y="4841.73" id="offset_0_30802" color="128,0,255" type="BusStop" />
  <poi x="5422.31" y="5663.35" id="offset_0_30901" color="128,0,255" type="BusStop" />
  <poi x="7385.01" y="6449.9" id="offset_0_31301" color="128,0,255" type="BusStop" />
  <poi x="7368.34" y="6299.11" id="offset_0_31302" color="128,0,255" type="BusStop" />
  <poi x="4394.39" y="5502.12" id="offset_0_3202" color="128,0,255" type="BusStop" />
  <poi x="4663.36" y="5344.56" id="offset_0_32501" color="128,0,255" type="BusStop" />
  <poi x="1885.12" y="5535.76" id="offset_0_34002" color="128,0,255" type="BusStop" />
  <poi x="2015.71" y="5603.92" id="offset_0_34098" color="128,0,255" type="BusStop" />
  <poi x="2025.96" y="5578.39" id="offset_0_34099" color="128,0,255" type="BusStop" />
  <poi x="9663.06" y="2957.88" id="offset_0_34101" color="128,0,255" type="BusStop" />
  <poi x="9717.88" y="2979.53" id="offset_0_34102" color="128,0,255" type="BusStop" />
  <poi x="6713.45" y="6816.78" id="offset_0_3501" color="128,0,255" type="BusStop" />
  <poi x="6776.65" y="6793.9" id="offset_0_3502" color="128,0,255" type="BusStop" />
  <poi x="8397.31" y="3565.01" id="offset_0_3801" color="128,0,255" type="BusStop" />
  <poi x="8600.98" y="3561.3" id="offset_0_3802" color="128,0,255" type="BusStop" />
  <poi x="4359.93" y="5514.04" id="offset_0_38201" color="128,0,255" type="BusStop" />
  <poi x="2510.99" y="5040.55" id="offset_0_39001" color="128,0,255" type="BusStop" />
  <poi x="2510.99" y="5040.55" id="offset_0_39002" color="128,0,255" type="BusStop" />
  <poi x="2253.9" y="5546.23" id="offset_0_3901" color="128,0,255" type="BusStop" />
  <poi x="2194.57" y="5718.91" id="offset_0_3902" color="128,0,255" type="BusStop" />
  <poi x="2504.77" y="4984.09" id="offset_0_39099" color="128,0,255" type="BusStop" />
  <poi x="7049.19" y="5487.33" id="offset_0_39601" color="128,0,255" type="BusStop" />
  <poi x="7079.28" y="5562.04" id="offset_0_39602" color="128,0,255" type="BusStop" />
  <poi x="9475.14" y="3537.39" id="offset_0_4001" color="128,0,255" type="BusStop" />
  <poi x="9656.44" y="3537.13" id="offset_0_4002" color="128,0,255" type="BusStop" />
  <poi x="9819.24" y="7727.17" id="offset_0_41801" color="128,0,255" type="BusStop" />
  <poi x="5178.43" y="4569.68" id="offset_0_42501" color="128,0,255" type="BusStop" />
  <poi x="5178.7" y="4539.37" id="offset_0_42502" color="128,0,255" type="BusStop" />
  <poi x="4801.22" y="5675.99" id="offset_0_42601" color="128,0,255" type="BusStop" />
  <poi x="7772.28" y="5387.92" id="offset_0_42701" color="128,0,255" type="BusStop" />
  <poi x="7766.07" y="5330.94" id="offset_0_42702" color="128,0,255" type="BusStop" />
  <poi x="7939.38" y="5409.54" id="offset_0_42704" color="128,0,255" type="BusStop" />
  <poi x="5104.2" y="6019.33" id="offset_0_43001" color="128,0,255" type="BusStop" />
  <poi x="5069.91" y="6086.52" id="offset_0_43002" color="128,0,255" type="BusStop" />
  <poi x="5444.2" y="5633.25" id="offset_0_44302" color="128,0,255" type="BusStop" />
  <poi x="4944.99" y="6080.2" id="offset_0_44701" color="128,0,255" type="BusStop" />
  <poi x="4842.65" y="6023.06" id="offset_0_44702" color="128,0,255" type="BusStop" />
  <poi x="6711.58" y="6242.58" id="offset_0_44801" color="128,0,255" type="BusStop" />
  <poi x="6615.55" y="6269.57" id="offset_0_44802" color="128,0,255" type="BusStop" />
  <poi x="2264.74" y="5180.69" id="offset_0_46201" color="128,0,255" type="BusStop" />
  <poi x="2228.91" y="5174.92" id="offset_0_46202" color="128,0,255" type="BusStop" />
  <poi x="7007.58" y="4049.11" id="offset_0_46501" color="128,0,255" type="BusStop" />
  <poi x="6091.26" y="2635.49" id="offset_0_46701" color="128,0,255" type="BusStop" />
  <poi x="6106.21" y="2591.6" id="offset_0_46702" color="128,0,255" type="BusStop" />
  <poi x="4689.35" y="3979.46" id="offset_0_46801" color="128,0,255" type="BusStop" />
  <poi x="4653.84" y="3919.94" id="offset_0_46802" color="128,0,255" type="BusStop" />
  <poi x="9857.68" y="5490.55" id="offset_0_47301" color="128,0,255" type="BusStop" />
  <poi x="9898.76" y="5514.16" id="offset_0_47302" color="128,0,255" type="BusStop" />
  <poi x="7939.33" y="1810.1" id="offset_0_5001" color="128,0,255" type="BusStop" />
  <poi x="7932.14" y="1817.55" id="offset_0_5002" color="128,0,255" type="BusStop" />
  <poi x="4451.18" y="6748.08" id="offset_0_501" color="128,0,255" type="BusStop" />
  <poi x="4494.09" y="6790.98" id="offset_0_502" color="128,0,255" type="BusStop" />
  <poi x="9138.61" y="5161.83" id="offset_0_50501" color="128,0,255" type="BusStop" />
  <poi x="9237.1" y="5182.69" id="offset_0_50502" color="128,0,255" type="BusStop" />
  <poi x="7202.1" y="1176.98" id="offset_0_50899" color="128,0,255" type="BusStop" />
  <poi x="6087.14" y="2109.87" id="offset_0_51201" color="128,0,255" type="BusStop" />
  <poi x="5973.24" y="2108.83" id="offset_0_51202" color="128,0,255" type="BusStop" />
  <poi x="5795.58" y="2997.74" id="offset_0_51601" color="128,0,255" type="BusStop" />
  <poi x="5809.26" y="2999.12" id="offset_0_51602" color="128,0,255" type="BusStop" />
  <poi x="8747.57" y="2713.42" id="offset_0_51901" color="128,0,255" type="BusStop" />
  <poi x="8796.03" y="2700.25" id="offset_0_51902" color="128,0,255" type="BusStop" />
  <poi x="4858.67" y="5646.41" id="offset_0_52602" color="128,0,255" type="BusStop" />
  <poi x="9859.92" y="1254.15" id="offset_0_53999" color="128,0,255" type="BusStop" />
  <poi x="6254.4" y="5430.3" id="offset_0_54393" color="128,0,255" type="BusStop" />
  <poi x="6286.5" y="5445.54" id="offset_0_54395" color="128,0,255" type="BusStop" />
  <poi x="6312.5" y="5411.55" id="offset_0_54396" color="128,0,255" type="BusStop" />
  <poi x="6301.45" y="5422.61" id="offset_0_54397" color="128,0,255" type="BusStop" />
  <poi x="6303.96" y="5424.62" id="offset_0_54398" color="128,0,255" type="BusStop" />
  <poi x="6297.84" y="5395.11" id="offset_0_54399" color="128,0,255" type="BusStop" />
  <poi x="4412.63" y="6281.74" id="offset_0_54401" color="128,0,255" type="BusStop" />
  <poi x="4426.4" y="6294.7" id="offset_0_54402" color="128,0,255" type="BusStop" />
  <poi x="6597.53" y="5273.98" id="offset_0_54702" color="128,0,255" type="BusStop" />
  <poi x="6740.53" y="5971.39" id="offset_0_55101" color="128,0,255" type="BusStop" />
  <poi x="6770.65" y="6122.39" id="offset_0_55102" color="128,0,255" type="BusStop" />
  <poi x="6963.89" y="7801.11" id="offset_0_55202" color="128,0,255" type="BusStop" />
  <poi x="6324.32" y="1329.03" id="offset_0_56402" color="128,0,255" type="BusStop" />
  <poi x="2045.11" y="5327.19" id="offset_0_57201" color="128,0,255" type="BusStop" />
  <poi x="2041.7" y="5321.88" id="offset_0_57202" color="128,0,255" type="BusStop" />
  <poi x="7147.13" y="2641.64" id="offset_0_57301" color="128,0,255" type="BusStop" />
  <poi x="7245.36" y="2364.64" id="offset_0_57302" color="128,0,255" type="BusStop" />
  <poi x="7815.12" y="4194.29" id="offset_0_57401" color="128,0,255" type="BusStop" />
  <poi x="7849.63" y="4176.33" id="offset_0_57402" color="128,0,255" type="BusStop" />
  <poi x="7625.44" y="6026.85" id="offset_0_57701" color="128,0,255" type="BusStop" />
  <poi x="7808.8" y="6027.65" id="offset_0_57702" color="128,0,255" type="BusStop" />
  <poi x="7630.99" y="6017.88" id="offset_0_57703" color="128,0,255" type="BusStop" />
  <poi x="3632.85" y="4964.0" id="offset_0_57801" color="128,0,255" type="BusStop" />
  <poi x="3566.47" y="4972.03" id="offset_0_57802" color="128,0,255" type="BusStop" />
  <poi x="6846.97" y="5327.47" id="offset_0_57901" color="128,0,255" type="BusStop" />
  <poi x="6956.78" y="5387.71" id="offset_0_57902" color="128,0,255" type="BusStop" />
  <poi x="4045.23" y="5837.68" id="offset_0_58002" color="128,0,255" type="BusStop" />
  <poi x="7203.77" y="3540.21" id="offset_0_58101" color="128,0,255" type="BusStop" />
  <poi x="7198.98" y="3538.41" id="offset_0_58102" color="128,0,255" type="BusStop" />
  <poi x="4546.44" y="6032.73" id="offset_0_58401" color="128,0,255" type="BusStop" />
  <poi x="4579.3" y="6056.19" id="offset_0_58402" color="128,0,255" type="BusStop" />
  <poi x="7586.35" y="3438.49" id="offset_0_59301" color="128,0,255" type="BusStop" />
  <poi x="7693.11" y="3383.53" id="offset_0_59302" color="128,0,255" type="BusStop" />
  <poi x="9681.21" y="1166.27" id="offset_0_59601" color="128,0,255" type="BusStop" />
  <poi x="9665.63" y="1165.42" id="offset_0_59602" color="128,0,255" type="BusStop" />
  <poi x="6273.3" y="3386.51" id="offset_0_60601" color="128,0,255" type="BusStop" />
  <poi x="6285.53" y="3379.34" id="offset_0_60602" color="128,0,255" type="BusStop" />
  <poi x="5874.82" y="4248.59" id="offset_0_60701" color="128,0,255" type="BusStop" />
  <poi x="5882.25" y="4249.24" id="offset_0_60702" color="128,0,255" type="BusStop" />
  <poi x="5824.69" y="4238.5" id="offset_0_60705" color="128,0,255" type="BusStop" />
  <poi x="5826.45" y="4248.56" id="offset_0_60706" color="128,0,255" type="BusStop" />
  <poi x="6112.61" y="5087.93" id="offset_0_61201" color="128,0,255" type="BusStop" />
  <poi x="6118.01" y="5104.4" id="offset_0_61202" color="128,0,255" type="BusStop" />
  <poi x="7869.76" y="5005.07" id="offset_0_61301" color="128,0,255" type="BusStop" />
  <poi x="7918.4" y="5030.18" id="offset_0_61302" color="128,0,255" type="BusStop" />
  <poi x="4372.7" y="5310.04" id="offset_0_62601" color="128,0,255" type="BusStop" />
  <poi x="3953.73" y="5431.61" id="offset_0_62901" color="128,0,255" type="BusStop" />
  <poi x="4072.33" y="5415.59" id="offset_0_62902" color="128,0,255" type="BusStop" />
  <poi x="8438.86" y="1394.72" id="offset_0_63301" color="128,0,255" type="BusStop" />
  <poi x="8355.13" y="1351.23" id="offset_0_63302" color="128,0,255" type="BusStop" />
  <poi x="9292.41" y="1464.33" id="offset_0_63401" color="128,0,255" type="BusStop" />
  <poi x="9423.1" y="1221.82" id="offset_0_63402" color="128,0,255" type="BusStop" />
  <poi x="9358.28" y="1530.82" id="offset_0_63403" color="128,0,255" type="BusStop" />
  <poi x="3312.34" y="4785.27" id="offset_0_64001" color="128,0,255" type="BusStop" />
  <poi x="3315.55" y="4781.27" id="offset_0_64002" color="128,0,255" type="BusStop" />
  <poi x="6941.5" y="3291.41" id="offset_0_6401" color="128,0,255" type="BusStop" />
  <poi x="6965.61" y="3219.18" id="offset_0_6402" color="128,0,255" type="BusStop" />
  <poi x="8597.73" y="5065.64" id="offset_0_64301" color="128,0,255" type="BusStop" />
  <poi x="8736.68" y="5097.94" id="offset_0_64302" color="128,0,255" type="BusStop" />
  <poi x="5189.38" y="5446.72" id="offset_0_64501" color="128,0,255" type="BusStop" />
  <poi x="5196.49" y="5400.47" id="offset_0_64502" color="128,0,255" type="BusStop" />
  <poi x="6864.54" y="1402.31" id="offset_0_64801" color="128,0,255" type="BusStop" />
  <poi x="6926.78" y="1297.41" id="offset_0_64802" color="128,0,255" type="BusStop" />
  <poi x="7994.21" y="6023.59" id="offset_0_64901" color="128,0,255" type="BusStop" />
  <poi x="7968.05" y="6032.52" id="offset_0_64999" color="128,0,255" type="BusStop" />
  <poi x="4824.36" y="6569.26" id="offset_0_6501" color="128,0,255" type="BusStop" />
  <poi x="4809.0" y="6597.76" id="offset_0_6502" color="128,0,255" type="BusStop" />
  <poi x="7468.05" y="2828.38" id="offset_0_65501" color="128,0,255" type="BusStop" />
  <poi x="7493.69" y="2687.15" id="offset_0_65502" color="128,0,255" type="BusStop" />
  <poi x="2490.67" y="5326.64" id="offset_0_65901" color="128,0,255" type="BusStop" />
  <poi x="2435.69" y="5371.23" id="offset_0_65902" color="128,0,255" type="BusStop" />
  <poi x="9574.63" y="5324.51" id="offset_0_67101" color="128,0,255" type="BusStop" />
  <poi x="9637.69" y="5350.37" id="offset_0_67102" color="128,0,255" type="BusStop" />
  <poi x="7930.62" y="7092.06" id="offset_0_67201" color="128,0,255" type="BusStop" />
  <poi x="7905.6" y="7081.61" id="offset_0_67202" color="128,0,255" type="BusStop" />
  <poi x="4983.64" y="6293.73" id="offset_0_67301" color="128,0,255" type="BusStop" />
  <poi x="4956.31" y="6320.23" id="offset_0_67302" color="128,0,255" type="BusStop" />
  <poi x="2152.41" y="4041.27" id="offset_0_67701" color="128,0,255" type="BusStop" />
  <poi x="2072.63" y="4000.25" id="offset_0_67702" color="128,0,255" type="BusStop" />
  <poi x="6202.76" y="4327.59" id="offset_0_68801" color="128,0,255" type="BusStop" />
  <poi x="6250.49" y="4373.38" id="offset_0_68802" color="128,0,255" type="BusStop" />
  <poi x="5740.66" y="5664.38" id="offset_0_69101" color="128,0,255" type="BusStop" />
  <poi x="5810.94" y="5682.28" id="offset_0_69102" color="128,0,255" type="BusStop" />
  <poi x="5754.02" y="5796.05" id="offset_0_69103" color="128,0,255" type="BusStop" />
  <poi x="5743.5" y="5876.65" id="offset_0_69104" color="128,0,255" type="BusStop" />
  <poi x="5969.78" y="1586.12" id="offset_0_70401" color="128,0,255" type="BusStop" />
  <poi x="5830.81" y="1528.63" id="offset_0_70402" color="128,0,255" type="BusStop" />
  <poi x="2610.13" y="4318.78" id="offset_0_70701" color="128,0,255" type="BusStop" />
  <poi x="2498.43" y="4314.8" id="offset_0_70702" color="128,0,255" type="BusStop" />
  <poi x="5372.39" y="4193.32" id="offset_0_70801" color="128,0,255" type="BusStop" />
  <poi x="5435.34" y="4145.88" id="offset_0_70802" color="128,0,255" type="BusStop" />
  <poi x="7862.98" y="2490.33" id="offset_0_70901" color="128,0,255" type="BusStop" />
  <poi x="7871.43" y="2485.8" id="offset_0_70902" color="128,0,255" type="BusStop" />
  <poi x="4952.85" y="5179.07" id="offset_0_71801" color="128,0,255" type="BusStop" />
  <poi x="4950.5" y="5163.18" id="offset_0_71802" color="128,0,255" type="BusStop" />
  <poi x="6527.57" y="6169.64" id="offset_0_72001" color="128,0,255" type="BusStop" />
  <poi x="6467.06" y="6143.7" id="offset_0_72002" color="128,0,255" type="BusStop" />
  <poi x="6919.16" y="6130.62" id="offset_0_72101" color="128,0,255" type="BusStop" />
  <poi x="6789.42" y="6148.57" id="offset_0_72102" color="128,0,255" type="BusStop" />
  <poi x="7162.26" y="5680.04" id="offset_0_72201" color="128,0,255" type="BusStop" />
  <poi x="7192.89" y="5752.23" id="offset_0_72202" color="128,0,255" type="BusStop" />
  <poi x="4526.42" y="5756.61" id="offset_0_72301" color="128,0,255" type="BusStop" />
  <poi x="4543.1" y="5741.26" id="offset_0_72302" color="128,0,255" type="BusStop" />