<additional>
  <poi x="6727.007662684464" y="1733.5086488005184" id="starthalfendpos-startpos_101" color="128,200,90" type="BusStop" />
  <poi x="6739.484167328112" y="1726.9024697376296" id="starthalfendpos-startpos_102" color="128,200,90" type="BusStop" />
  <poi x="9632.288361054234" y="3338.6584236601648" id="starthalfendpos-startpos_103401" color="128,200,90" type="BusStop" />
  <poi x="9629.35584707363" y="3340.201698839028" id="starthalfendpos-startpos_103402" color="128,200,90" type="BusStop" />
  <poi x="3716.454106973197" y="5263.7590635921415" id="starthalfendpos-startpos_104201" color="128,200,90" type="BusStop" />
  <poi x="3692.4536361501337" y="5282.260897238922" id="starthalfendpos-startpos_104203" color="128,200,90" type="BusStop" />
  <poi x="9169.484510878678" y="2026.5303171980795" id="starthalfendpos-startpos_10599" color="128,200,90" type="BusStop" />
  <poi x="7528.029334544075" y="4362.26709412025" id="starthalfendpos-startpos_10801" color="128,200,90" type="BusStop" />
  <poi x="7492.351662752341" y="4202.224680493235" id="starthalfendpos-startpos_10802" color="128,200,90" type="BusStop" />
  <poi x="4795.59" y="4307.96" id="starthalfendpos-startpos_10902" color="128,200,90" type="BusStop" />
  <poi x="6205.308496660814" y="3943.659995272434" id="starthalfendpos-startpos_11001" color="128,200,90" type="BusStop" />
  <poi x="6198.03" y="3965.07" id="starthalfendpos-startpos_11002" color="128,200,90" type="BusStop" />
  <poi x="7421.279688390135" y="3132.807766681982" id="starthalfendpos-startpos_11301" color="128,200,90" type="BusStop" />
  <poi x="7412.89125107659" y="3141.2287849460886" id="starthalfendpos-startpos_11302" color="128,200,90" type="BusStop" />
  <poi x="9411.836479427817" y="2035.3685081780957" id="starthalfendpos-startpos_11499" color="128,200,90" type="BusStop" />
  <poi x="7851.685636352797" y="8390.00970727598" id="starthalfendpos-startpos_118201" color="128,200,90" type="BusStop" />
  <poi x="7849.914521588396" y="8393.954581005037" id="starthalfendpos-startpos_118202" color="128,200,90" type="BusStop" />
  <poi x="4466.736818581923" y="4898.262849833554" id="starthalfendpos-startpos_12601" color="128,200,90" type="BusStop" />
  <poi x="4468.853273260866" y="4892.136290451848" id="starthalfendpos-startpos_12602" color="128,200,90" type="BusStop" />
  <poi x="7436.4797212437825" y="1592.7818488278697" id="starthalfendpos-startpos_12701" color="128,200,90" type="BusStop" />
  <poi x="7440.242560765505" y="1593.814656335584" id="starthalfendpos-startpos_12702" color="128,200,90" type="BusStop" />
  <poi x="5615.214162367124" y="4009.6855266182015" id="starthalfendpos-startpos_12901" color="128,200,90" type="BusStop" />
  <poi x="5629.472218009538" y="3998.761016298629" id="starthalfendpos-startpos_12902" color="128,200,90" type="BusStop" />
  <poi x="3649.037318363706" y="4393.435725546735" id="starthalfendpos-startpos_13201" color="128,200,90" type="BusStop" />
  <poi x="3611.892789255329" y="4374.715265074894" id="starthalfendpos-startpos_13202" color="128,200,90" type="BusStop" />
  <poi x="9566.588990791826" y="7998.502805866909" id="starthalfendpos-startpos_13401" color="128,200,90" type="BusStop" />
  <poi x="9513.022168599906" y="7985.810141322401" id="starthalfendpos-startpos_13402" color="128,200,90" type="BusStop" />
  <poi x="7486.662462815478" y="6871.40261732501" id="starthalfendpos-startpos_13501" color="128,200,90" type="BusStop" />
  <poi x="7461.213859158919" y="6857.44890629142" id="starthalfendpos-startpos_13502" color="128,200,90" type="BusStop" />
  <poi x="6539.573294531962" y="1409.69130310268" id="starthalfendpos-startpos_13702" color="128,200,90" type="BusStop" />
  <poi x="3893.474136445189" y="6497.633638572072" id="starthalfendpos-startpos_145901" color="128,200,90" type="BusStop" />
  <poi x="3855.337934087053" y="6516.512300459974" id="starthalfendpos-startpos_145902" color="128,200,90" type="BusStop" />
  <poi x="6279.938689050094" y="4728.07950675387" id="starthalfendpos-startpos_146701" color="128,200,90" type="BusStop" />
  <poi x="6282.197594595482" y="4710.592989479644" id="starthalfendpos-startpos_146702" color="128,200,90" type="BusStop" />
  <poi x="6440.244145276653" y="5901.923093986056" id="starthalfendpos-startpos_147301" color="128,200,90" type="BusStop" />
  <poi x="6443.478713182826" y="5902.291577338191" id="starthalfendpos-startpos_147302" color="128,200,90" type="BusStop" />
  <poi x="2461.168421556386" y="4568.984880167937" id="starthalfendpos-startpos_14798" color="128,200,90" type="BusStop" />
  <poi x="2470.9573377015163" y="4621.2196849070815" id="starthalfendpos-startpos_14799" color="128,200,90" type="BusStop" />
  <poi x="9415.385041682634" y="6542.724815617887" id="starthalfendpos-startpos_148199" color="128,200,90" type="BusStop" />
  <poi x="4109.274805585411" y="6353.581433652281" id="starthalfendpos-startpos_148301" color="128,200,90" type="BusStop" />
  <poi x="4108.306603913111" y="6350.406592111646" id="starthalfendpos-startpos_148302" color="128,200,90" type="BusStop" />
  <poi x="8044.130619782151" y="4230.208741092226" id="starthalfendpos-startpos_14899" color="128,200,90" type="BusStop" />
  <poi x="3599.817679134062" y="6690.161324329123" id="starthalfendpos-startpos_149299" color="128,200,90" type="BusStop" />
  <poi x="6807.534361751403" y="3548.222970071668" id="starthalfendpos-startpos_156198" color="128,200,90" type="BusStop" />
  <poi x="6791.97957736148" y="3576.507834168337" id="starthalfendpos-startpos_156199" color="128,200,90" type="BusStop" />
  <poi x="7058.114354916978" y="7238.522848969461" id="starthalfendpos-startpos_156301" color="128,200,90" type="BusStop" />
  <poi x="6974.978813613024" y="7253.177899521021" id="starthalfendpos-startpos_156302" color="128,200,90" type="BusStop" />
  <poi x="7340.016854572452" y="7009.5256615292055" id="starthalfendpos-startpos_156401" color="128,200,90" type="BusStop" />
  <poi x="7341.011385050951" y="6977.474600333088" id="starthalfendpos-startpos_156402" color="128,200,90" type="BusStop" />
  <poi x="6956.4931936461535" y="6774.257013723704" id="starthalfendpos-startpos_156501" color="128,200,90" type="BusStop" />
  <poi x="7050.510262757591" y="6820.315588719191" id="starthalfendpos-startpos_156502" color="128,200,90" type="BusStop" />
  <poi x="6380.946608276657" y="3044.476141013123" id="starthalfendpos-startpos_157401" color="128,200,90" type="BusStop" />
  <poi x="6405.613215053304" y="3025.401814513416" id="starthalfendpos-startpos_157402" color="128,200,90" type="BusStop" />
  <poi x="3750.788315179893" y="6698.6057820867" id="starthalfendpos-startpos_159401" color="128,200,90" type="BusStop" />
  <poi x="3720.954620232832" y="6761.678600798564" id="starthalfendpos-startpos_159402" color="128,200,90" type="BusStop" />
  <poi x="6911.460167097932" y="4429.515813470054" id="starthalfendpos-startpos_162401" color="128,200,90" type="BusStop" />
  <poi x="6913.00622998615" y="4432.670557453466" id="starthalfendpos-startpos_162402" color="128,200,90" type="BusStop" />
  <poi x="6833.699291535702" y="3827.450819969694" id="starthalfendpos-startpos_162598" color="128,200,90" type="BusStop" />
  <poi x="6902.844436832446" y="3916.826213345611" id="starthalfendpos-startpos_162599" color="128,200,90" type="BusStop" />
  <poi x="7240.8" y="4359.23" id="starthalfendpos-startpos_162601" color="128,200,90" type="BusStop" />
  <poi x="7199.789088510611" y="4338.159841260264" id="starthalfendpos-startpos_162602" color="128,200,90" type="BusStop" />
  <poi x="7197.503600838339" y="4342.153053891041" id="starthalfendpos-startpos_162603" color="128,200,90" type="BusStop" />
  <poi x="6481.399091293258" y="2625.776798921353" id="starthalfendpos-startpos_164801" color="128,200,90" type="BusStop" />
  <poi x="6568.41" y="2552.93" id="starthalfendpos-startpos_164802" color="128,200,90" type="BusStop" />
  <poi x="6511.917725721398" y="2609.6512733621644" id="starthalfendpos-startpos_164803" color="128,200,90" type="BusStop" />
  <poi x="6027.315270125204" y="3082.0817702504864" id="starthalfendpos-startpos_16501" color="128,200,90" type="BusStop" />
  <poi x="6094.118567301904" y="3098.6964865841937" id="starthalfendpos-startpos_16502" color="128,200,90" type="BusStop" />
  <poi x="6412.528988995736" y="5491.210577109325" id="starthalfendpos-startpos_167301" color="128,200,90" type="BusStop" />
  <poi x="6410.022611116716" y="5488.656427761526" id="starthalfendpos-startpos_167302" color="128,200,90" type="BusStop" />
  <poi x="9765.69" y="6827.04" id="starthalfendpos-startpos_167799" color="128,200,90" type="BusStop" />
  <poi x="6704.043863037944" y="4718.222210124659" id="starthalfendpos-startpos_168101" color="128,200,90" type="BusStop" />
  <poi x="6708.524117455479" y="4672.1027670661615" id="starthalfendpos-startpos_168102" color="128,200,90" type="BusStop" />
  <poi x="5933.667996303686" y="1851.5666401232272" id="starthalfendpos-startpos_173101" color="128,200,90" type="BusStop" />
  <poi x="5944.500697406137" y="1822.4973420584668" id="starthalfendpos-startpos_173102" color="128,200,90" type="BusStop" />
  <poi x="9222.46" y="2801.69" id="starthalfendpos-startpos_17901" color="128,200,90" type="BusStop" />
  <poi x="9176.2327068541" y="2795.7193621670986" id="starthalfendpos-startpos_17902" color="128,200,90" type="BusStop" />
  <poi x="7597.87786116076" y="2010.1896642457343" id="starthalfendpos-startpos_18001" color="128,200,90" type="BusStop" />
  <poi x="7580.461161629978" y="2004.4694580520309" id="starthalfendpos-startpos_18002" color="128,200,90" type="BusStop" />
  <poi x="2654.15825119175" y="5563.812845226245" id="starthalfendpos-startpos_180301" color="128,200,90" type="BusStop" />
  <poi x="2693.2221577396595" y="5530.700797729789" id="starthalfendpos-startpos_180302" color="128,200,90" type="BusStop" />
  <poi x="2166.427803950183" y="7117.892542537411" id="starthalfendpos-startpos_180801" color="128,200,90" type="BusStop" />
  <poi x="2181.89" y="7242.9" id="starthalfendpos-startpos_180802" color="128,200,90" type="BusStop" />
  <poi x="6775.323992744229" y="1849.4381292592184" id="starthalfendpos-startpos_181101" color="128,200,90" type="BusStop" />
  <poi x="6776.924846571453" y="1846.6530201380376" id="starthalfendpos-startpos_181102" color="128,200,90" type="BusStop" />
  <poi x="5156.554307012642" y="5818.866166466512" id="starthalfendpos-startpos_18301" color="128,200,90" type="BusStop" />
  <poi x="5163.381998024202" y="5740.566369028951" id="starthalfendpos-startpos_18302" color="128,200,90" type="BusStop" />
  <poi x="5142.1923163670845" y="5652.529289798383" id="starthalfendpos-startpos_18303" color="128,200,90" type="BusStop" />
  <poi x="5220.894596186802" y="5621.924577522989" id="starthalfendpos-startpos_18304" color="128,200,90" type="BusStop" />
  <poi x="10113.269386851662" y="2552.4693496324167" id="starthalfendpos-startpos_184096" color="128,200,90" type="BusStop" />
  <poi x="10091.140687077192" y="2544.324800483055" id="starthalfendpos-startpos_184097" color="128,200,90" type="BusStop" />
  <poi x="10125.264093590717" y="2524.2786272488797" id="starthalfendpos-startpos_184099" color="128,200,90" type="BusStop" />
  <poi x="6933.86041464833" y="2309.2269284541158" id="starthalfendpos-startpos_184599" color="128,200,90" type="BusStop" />
  <poi x="2422.0313397961854" y="6885.556109319439" id="starthalfendpos-startpos_184601" color="128,200,90" type="BusStop" />
  <poi x="2481.7499084357173" y="6852.338306130332" id="starthalfendpos-startpos_184602" color="128,200,90" type="BusStop" />
  <poi x="1677.8800469651849" y="8188.6695844926" id="starthalfendpos-startpos_184901" color="128,200,90" type="BusStop" />
  <poi x="1680.9086076552749" y="8183.867285957266" id="starthalfendpos-startpos_184902" color="128,200,90" type="BusStop" />
  <poi x="5630.6399849295485" y="6402.340012489128" id="starthalfendpos-startpos_185001" color="128,200,90" type="BusStop" />
  <poi x="5627.605540740944" y="6401.094389672151" id="starthalfendpos-startpos_185002" color="128,200,90" type="BusStop" />
  <poi x="6471.319886917229" y="1721.019372212083" id="starthalfendpos-startpos_18501" color="128,200,90" type="BusStop" />
  <poi x="6471.358947427589" y="1717.7216397781146" id="starthalfendpos-startpos_18502" color="128,200,90" type="BusStop" />
  <poi x="5246.745505710511" y="6591.838500618863" id="starthalfendpos-startpos_185101" color="128,200,90" type="BusStop" />
  <poi x="5239.303540895521" y="6596.143711004392" id="starthalfendpos-startpos_185102" color="128,200,90" type="BusStop" />
  <poi x="4868.699555111761" y="7607.71742259536" id="starthalfendpos-startpos_185301" color="128,200,90" type="BusStop" />
  <poi x="4867.063654566427" y="7611.9030624535135" id="starthalfendpos-startpos_185302" color="128,200,90" type="BusStop" />
  <poi x="7615.009051393784" y="7552.250570796177" id="starthalfendpos-startpos_185699" color="128,200,90" type="BusStop" />
  <poi x="7234.068170076094" y="6056.582644196407" id="starthalfendpos-startpos_18601" color="128,200,90" type="BusStop" />
  <poi x="7241.846467355548" y="6042.805609899594" id="starthalfendpos-startpos_18602" color="128,200,90" type="BusStop" />
  <poi x="8567.11567090379" y="1197.75426166556" id="starthalfendpos-startpos_186301" color="128,200,90" type="BusStop" />
  <poi x="8656.323169335681" y="1258.7227191790996" id="starthalfendpos-startpos_186302" color="128,200,90" type="BusStop" />
  <poi x="8780.543847672647" y="1392.0424755936651" id="starthalfendpos-startpos_186501" color="128,200,90" type="BusStop" />
  <poi x="8725.892109551092" y="1419.3705017944687" id="starthalfendpos-startpos_186502" color="128,200,90" type="BusStop" />
  <poi x="8300.870076928293" y="1635.6593162619329" id="starthalfendpos-startpos_186601" color="128,200,90" type="BusStop" />
  <poi x="8322.516725605057" y="1631.4796022104963" id="starthalfendpos-startpos_186602" color="128,200,90" type="BusStop" />
  <poi x="7021.453478219527" y="3367.28522744095" id="starthalfendpos-startpos_18701" color="128,200,90" type="BusStop" />
  <poi x="7016.832597085169" y="3373.6177891524144" id="starthalfendpos-startpos_18702" color="128,200,90" type="BusStop" />
  <poi x="2700.455044488704" y="6754.525741478259" id="starthalfendpos-startpos_187401" color="128,200,90" type="BusStop" />
  <poi x="2721.662425703127" y="6751.708175500993" id="starthalfendpos-startpos_187402" color="128,200,90" type="BusStop" />
  <poi x="4484.578293911705" y="7571.59067446881" id="starthalfendpos-startpos_188401" color="128,200,90" type="BusStop" />
  <poi x="4480.215464973093" y="7569.483950503972" id="starthalfendpos-startpos_188402" color="128,200,90" type="BusStop" />
  <poi x="4529.778417168919" y="7687.661512868432" id="starthalfendpos-startpos_188501" color="128,200,90" type="BusStop" />
  <poi x="4532.961920301776" y="7686.977151567931" id="starthalfendpos-startpos_188502" color="128,200,90" type="BusStop" />
  <poi x="4528.1207551416" y="7232.5611869102995" id="starthalfendpos-startpos_188601" color="128,200,90" type="BusStop" />
  <poi x="4528.731335916075" y="7228.386121198937" id="starthalfendpos-startpos_188602" color="128,200,90" type="BusStop" />
  <poi x="1644.6448793239254" y="5864.027312056105" id="starthalfendpos-startpos_189199" color="128,200,90" type="BusStop" />
  <poi x="1656.8155139473506" y="5493.203938263593" id="starthalfendpos-startpos_189299" color="128,200,90" type="BusStop" />
  <poi x="9466.649820604496" y="6719.684695511961" id="starthalfendpos-startpos_189799" color="128,200,90" type="BusStop" />
  <poi x="7301.312353130165" y="7993.025375220462" id="starthalfendpos-startpos_190101" color="128,200,90" type="BusStop" />
  <poi x="7170.650430886977" y="7951.671633755704" id="starthalfendpos-startpos_190102" color="128,200,90" type="BusStop" />
  <poi x="4315.513686397299" y="7484.178100379972" id="starthalfendpos-startpos_190601" color="128,200,90" type="BusStop" />
  <poi x="4333.8886017963405" y="7474.251081236338" id="starthalfendpos-startpos_190602" color="128,200,90" type="BusStop" />
  <poi x="4350.363118954447" y="7465.350749253357" id="starthalfendpos-startpos_190603" color="128,200,90" type="BusStop" />
  <poi x="4365.742267682013" y="7457.042188342141" id="starthalfendpos-startpos_190604" color="128,200,90" type="BusStop" />
  <poi x="4360.206286854384" y="7436.891134434528" id="starthalfendpos-startpos_190605" color="128,200,90" type="BusStop" />
  <poi x="4342.077813906976" y="7445.9257065657985" id="starthalfendpos-startpos_190606" color="128,200,90" type="BusStop" />
  <poi x="4323.671887164768" y="7455.098551585774" id="starthalfendpos-startpos_190607" color="128,200,90" type="BusStop" />
  <poi x="4307.695918657673" y="7463.060393725649" id="starthalfendpos-startpos_190608" color="128,200,90" type="BusStop" />
  <poi x="7061.670682587715" y="2869.6827780027133" id="starthalfendpos-startpos_19701" color="128,200,90" type="BusStop" />
  <poi x="7029.297986422501" y="2995.9119850231687" id="starthalfendpos-startpos_19702" color="128,200,90" type="BusStop" />
  <poi x="6759.4117318797935" y="5084.083808141656" id="starthalfendpos-startpos_20101" color="128,200,90" type="BusStop" />
  <poi x="6762.861853175844" y="5123.058092173849" id="starthalfendpos-startpos_20102" color="128,200,90" type="BusStop" />
  <poi x="7371.342823291958" y="1238.9492192103453" id="starthalfendpos-startpos_20201" color="128,200,90" type="BusStop" />
  <poi x="7385.620510289643" y="1282.383215540173" id="starthalfendpos-startpos_20202" color="128,200,90" type="BusStop" />
  <poi x="4707.005165276851" y="5480.2780806772125" id="starthalfendpos-startpos_20401" color="128,200,90" type="BusStop" />
  <poi x="4715.968529845491" y="5458.754361525718" id="starthalfendpos-startpos_20402" color="128,200,90" type="BusStop" />
  <poi x="2190.8492145506166" y="7654.719259651779" id="starthalfendpos-startpos_21401" color="128,200,90" type="BusStop" />
  <poi x="2167.55" y="7660.66" id="starthalfendpos-startpos_21402" color="128,200,90" type="BusStop" />
  <poi x="2157.7051230130364" y="6351.417945022632" id="starthalfendpos-startpos_21601" color="128,200,90" type="BusStop" />
  <poi x="2152.947607637965" y="6409.763302119361" id="starthalfendpos-startpos_21602" color="128,200,90" type="BusStop" />
  <poi x="4138.9665549387255" y="6000.082420992505" id="starthalfendpos-startpos_23101" color="128,200,90" type="BusStop" />
  <poi x="4180.584117867997" y="5994.62445022964" id="starthalfendpos-startpos_23102" color="128,200,90" type="BusStop" />
  <poi x="7573.108981759488" y="4918.692977073923" id="starthalfendpos-startpos_23201" color="128,200,90" type="BusStop" />
  <poi x="7571.760932009874" y="4921.756640081638" id="starthalfendpos-startpos_23202" color="128,200,90" type="BusStop" />
  <poi x="7420.242401581743" y="5368.395623214763" id="starthalfendpos-startpos_23301" color="128,200,90" type="BusStop" />
  <poi x="7419.725715507485" y="5377.9733195517565" id="starthalfendpos-startpos_23302" color="128,200,90" type="BusStop" />
  <poi x="3031.816983680925" y="5443.419832493555" id="starthalfendpos-startpos_2399" color="128,200,90" type="BusStop" />
  <poi x="7739.563508477376" y="1894.617076545292" id="starthalfendpos-startpos_24101" color="128,200,90" type="BusStop" />
  <poi x="7694.905550084894" y="1914.1461651451164" id="starthalfendpos-startpos_24102" color="128,200,90" type="BusStop" />
  <poi x="7626.52" y="6969.24" id="starthalfendpos-startpos_24701" color="128,200,90" type="BusStop" />
  <poi x="7619.647848038275" y="6933.7606667088685" id="starthalfendpos-startpos_24702" color="128,200,90" type="BusStop" />
  <poi x="7922.459966077192" y="6184.935371994277" id="starthalfendpos-startpos_25999" color="128,200,90" type="BusStop" />
  <poi x="8102.145843629703" y="5344.660725337974" id="starthalfendpos-startpos_26299" color="128,200,90" type="BusStop" />
  <poi x="10186.857841687852" y="5567.371474142564" id="starthalfendpos-startpos_26601" color="128,200,90" type="BusStop" />
  <poi x="10118.251133678135" y="5557.659751377943" id="starthalfendpos-startpos_26602" color="128,200,90" type="BusStop" />
  <poi x="4053.188928305628" y="4855.889669507625" id="starthalfendpos-startpos_27801" color="128,200,90" type="BusStop" />
  <poi x="3984.9227808809983" y="4851.55229037646" id="starthalfendpos-startpos_27802" color="128,200,90" type="BusStop" />
  <poi x="7312.469015455999" y="2193.615280938464" id="starthalfendpos-startpos_28201" color="128,200,90" type="BusStop" />
  <poi x="7337.667025683578" y="2163.466422809086" id="starthalfendpos-startpos_28202" color="128,200,90" type="BusStop" />
  <poi x="5666.835038346611" y="4624.01654119648" id="starthalfendpos-startpos_28401" color="128,200,90" type="BusStop" />
  <poi x="5662.470802714036" y="4625.511775338899" id="starthalfendpos-startpos_28402" color="128,200,90" type="BusStop" />
  <poi x="3039.644888983305" y="4287.199875163554" id="starthalfendpos-startpos_28601" color="128,200,90" type="BusStop" />
  <poi x="3142.8492100260305" y="4260.17962308346" id="starthalfendpos-startpos_28602" color="128,200,90" type="BusStop" />
  <poi x="6183.628873663012" y="3358.733908256893" id="starthalfendpos-startpos_28701" color="128,200,90" type="BusStop" />
  <poi x="6186.843674210877" y="3359.135854805438" id="starthalfendpos-startpos_28702" color="128,200,90" type="BusStop" />
  <poi x="4484.593494554747" y="4596.417098911398" id="starthalfendpos-startpos_29101" color="128,200,90" type="BusStop" />
  <poi x="4558.304714456633" y="4601.975189534468" id="starthalfendpos-startpos_29102" color="128,200,90" type="BusStop" />
  <poi x="4037.3024425292288" y="5677.140794110359" id="starthalfendpos-startpos_30499" color="128,200,90" type="BusStop" />
  <poi x="6417.443704402808" y="5047.906794950213" id="starthalfendpos-startpos_30701" color="128,200,90" type="BusStop" />
  <poi x="7193.33793525389" y="4833.502321913556" id="starthalfendpos-startpos_30801" color="128,200,90" type="BusStop" />
  <poi x="7171.91848107858" y="4829.758922779157" id="starthalfendpos-startpos_30802" color="128,200,90" type="BusStop" />
  <poi x="5411.767648894301" y="5662.585975678296" id="starthalfendpos-startpos_30901" color="128,200,90" type="BusStop" />
  <poi x="7381.831329120712" y="6426.151845466067" id="starthalfendpos-startpos_31301" color="128,200,90" type="BusStop" />
  <poi x="7384.381543131618" y="6420.948503741454" id="starthalfendpos-startpos_31302" color="128,200,90" type="BusStop" />
  <poi x="4423.758340047852" y="5514.315869142676" id="starthalfendpos-startpos_3202" color="128,200,90" type="BusStop" />
  <poi x="4653.955784634413" y="5360.942368111876" id="starthalfendpos-startpos_32501" color="128,200,90" type="BusStop" />
  <poi x="2002.024759918356" y="5544.601215251771" id="starthalfendpos-startpos_34002" color="128,200,90" type="BusStop" />
  <poi x="2019.1261121045516" y="5591.356140000416" id="starthalfendpos-startpos_34098" color="128,200,90" type="BusStop" />
  <poi x="2022.205061233023" y="5592.219292637596" id="starthalfendpos-startpos_34099" color="128,200,90" type="BusStop" />
  <poi x="9703.910302814054" y="2971.496767604685" id="starthalfendpos-startpos_34101" color="128,200,90" type="BusStop" />
  <poi x="9681.06094188871" y="2967.2591785198583" id="starthalfendpos-startpos_34102" color="128,200,90" type="BusStop" />
  <poi x="6759.862290294491" y="6796.301342685503" id="starthalfendpos-startpos_3501" color="128,200,90" type="BusStop" />
  <poi x="6756.665638464714" y="6800.793830142018" id="starthalfendpos-startpos_3502" color="128,200,90" type="BusStop" />
  <poi x="8558.106031625253" y="3559.5119718470883" id="starthalfendpos-startpos_3801" color="128,200,90" type="BusStop" />
  <poi x="8570.196137458273" y="3562.296898697004" id="starthalfendpos-startpos_3802" color="128,200,90" type="BusStop" />
  <poi x="4346.701471686319" y="5510.786832931954" id="starthalfendpos-startpos_38201" color="128,200,90" type="BusStop" />
  <poi x="2509.296963206194" y="5027.660716605846" id="starthalfendpos-startpos_39001" color="128,200,90" type="BusStop" />
  <poi x="2506.4107131051387" y="5002.679053945523" id="starthalfendpos-startpos_39002" color="128,200,90" type="BusStop" />
  <poi x="2198.9127718956724" y="5713.015435845588" id="starthalfendpos-startpos_3901" color="128,200,90" type="BusStop" />
  <poi x="2195.750983348036" y="5712.51818661633" id="starthalfendpos-startpos_3902" color="128,200,90" type="BusStop" />
  <poi x="2503.53" y="4969.19" id="starthalfendpos-startpos_39099" color="128,200,90" type="BusStop" />
  <poi x="7054.906157619379" y="5496.815547097312" id="starthalfendpos-startpos_39601" color="128,200,90" type="BusStop" />
  <poi x="7047.342203524242" y="5507.932828119941" id="starthalfendpos-startpos_39602" color="128,200,90" type="BusStop" />
  <poi x="9570.82637023678" y="3535.343239964728" id="starthalfendpos-startpos_4001" color="128,200,90" type="BusStop" />
  <poi x="9551.704291249143" y="3538.8602636953824" id="starthalfendpos-startpos_4002" color="128,200,90" type="BusStop" />
  <poi x="9828.494154919996" y="7713.946527811626" id="starthalfendpos-startpos_41801" color="128,200,90" type="BusStop" />
  <poi x="5176.935347588928" y="4557.23442893355" id="starthalfendpos-startpos_42501" color="128,200,90" type="BusStop" />
  <poi x="5181.08765190075" y="4564.959825261711" id="starthalfendpos-startpos_42502" color="128,200,90" type="BusStop" />
  <poi x="4771.703833028081" y="5672.658811360625" id="starthalfendpos-startpos_42601" color="128,200,90" type="BusStop" />
  <poi x="7783.695126085327" y="5388.988232866032" id="starthalfendpos-startpos_42701" color="128,200,90" type="BusStop" />
  <poi x="7765.318158092363" y="5349.943277319671" id="starthalfendpos-startpos_42702" color="128,200,90" type="BusStop" />
  <poi x="7912.758923379735" y="5407.623132874199" id="starthalfendpos-startpos_42704" color="128,200,90" type="BusStop" />
  <poi x="5086.463223475109" y="6070.349119290115" id="starthalfendpos-startpos_43001" color="128,200,90" type="BusStop" />
  <poi x="5091.142922334041" y="6028.321800408814" id="starthalfendpos-startpos_43002" color="128,200,90" type="BusStop" />
  <poi x="5469.646874014473" y="5633.584514268551" id="starthalfendpos-startpos_44302" color="128,200,90" type="BusStop" />
  <poi x="4869.329264730355" y="6039.190528673771" id="starthalfendpos-startpos_44701" color="128,200,90" type="BusStop" />
  <poi x="4870.937464159703" y="6036.4219335563375" id="starthalfendpos-startpos_44702" color="128,200,90" type="BusStop" />
  <poi x="6697.259827928312" y="6243.995190056085" id="starthalfendpos-startpos_44801" color="128,200,90" type="BusStop" />
  <poi x="6625.8075162635805" y="6261.583551471248" id="starthalfendpos-startpos_44802" color="128,200,90" type="BusStop" />
  <poi x="2241.9130873369195" y="5181.052965943094" id="starthalfendpos-startpos_46201" color="128,200,90" type="BusStop" />
  <poi x="2248.2258492189403" y="5174.519539076625" id="starthalfendpos-startpos_46202" color="128,200,90" type="BusStop" />
  <poi x="7064.638808045209" y="4094.753319274522" id="starthalfendpos-startpos_46501" color="128,200,90" type="BusStop" />
  <poi x="6100.316012108264" y="2601.444069451017" id="starthalfendpos-startpos_46701" color="128,200,90" type="BusStop" />
  <poi x="6102.349166371387" y="2606.373818199935" id="starthalfendpos-startpos_46702" color="128,200,90" type="BusStop" />
  <poi x="4685.4333416986" y="3971.7363099654326" id="starthalfendpos-startpos_46801" color="128,200,90" type="BusStop" />
  <poi x="4671.099019666267" y="3941.0135599821183" id="starthalfendpos-startpos_46802" color="128,200,90" type="BusStop" />
  <poi x="9883.16151146331" y="5504.637843813051" id="starthalfendpos-startpos_47301" color="128,200,90" type="BusStop" />
  <poi x="9890.830303498546" y="5511.496705349607" id="starthalfendpos-startpos_47302" color="128,200,90" type="BusStop" />
  <poi x="8014.209792013024" y="1767.0371923965156" id="starthalfendpos-startpos_5001" color="128,200,90" type="BusStop" />
  <poi x="7897.153822917129" y="1834.6821681242188" id="starthalfendpos-startpos_5002" color="128,200,90" type="BusStop" />
  <poi x="4446.941852457124" y="6742.464901567665" id="starthalfendpos-startpos_501" color="128,200,90" type="BusStop" />
  <poi x="4497.736546591408" y="6796.360771130301" id="starthalfendpos-startpos_502" color="128,200,90" type="BusStop" />
  <poi x="9159.044235876265" y="5157.725851521018" id="starthalfendpos-startpos_50501" color="128,200,90" type="BusStop" />
  <poi x="9220.410390766614" y="5177.929834668036" id="starthalfendpos-startpos_50502" color="128,200,90" type="BusStop" />
  <poi x="7208.954623794279" y="1169.0999962029816" id="starthalfendpos-startpos_50899" color="128,200,90" type="BusStop" />
  <poi x="6074.221501060641" y="2109.227758805787" id="starthalfendpos-startpos_51201" color="128,200,90" type="BusStop" />
  <poi x="6044.983013874729" y="2107.32055878776" id="starthalfendpos-startpos_51202" color="128,200,90" type="BusStop" />
  <poi x="5773.995334106395" y="2990.5838978304223" id="starthalfendpos-startpos_51601" color="128,200,90" type="BusStop" />
  <poi x="5823.324705596087" y="3004.2468856526566" id="starthalfendpos-startpos_51602" color="128,200,90" type="BusStop" />
  <poi x="8769.139623724062" y="2700.623213981535" id="starthalfendpos-startpos_51901" color="128,200,90" type="BusStop" />
  <poi x="8776.940182614753" y="2711.6798456769066" id="starthalfendpos-startpos_51902" color="128,200,90" type="BusStop" />
  <poi x="4877.648257360188" y="5645.088076598286" id="starthalfendpos-startpos_52602" color="128,200,90" type="BusStop" />
  <poi x="9946.979087537107" y="1263.7330692671812" id="starthalfendpos-startpos_53999" color="128,200,90" type="BusStop" />
  <poi x="6266.174126095524" y="5438.264683275981" id="starthalfendpos-startpos_54393" color="128,200,90" type="BusStop" />