<additional>
  <poi x="6723.324156820373" y="1744.3077174894936" id="halfendpos-startpos_101" color="128,255,0" type="BusStop" />
  <poi x="6740.658990932085" y="1724.044517761205" id="halfendpos-startpos_102" color="128,255,0" type="BusStop" />
  <poi x="9610.83689439758" y="3196.264563703605" id="halfendpos-startpos_103401" color="128,255,0" type="BusStop" />
  <poi x="9631.95860191586" y="3352.345900722846" id="halfendpos-startpos_103402" color="128,255,0" type="BusStop" />
  <poi x="3718.875432421947" y="5263.9642051804085" id="halfendpos-startpos_104201" color="128,255,0" type="BusStop" />
  <poi x="3692.9844601665895" y="5274.368728597568" id="halfendpos-startpos_104203" color="128,255,0" type="BusStop" />
  <poi x="9152.357861964516" y="1897.234356930002" id="halfendpos-startpos_10599" color="128,255,0" type="BusStop" />
  <poi x="7450.963492389079" y="4365.444923951855" id="halfendpos-startpos_10801" color="128,255,0" type="BusStop" />
  <poi x="7495.426767764792" y="4206.928735038241" id="halfendpos-startpos_10802" color="128,255,0" type="BusStop" />
  <poi x="4750.417029430759" y="4230.208340339462" id="halfendpos-startpos_10902" color="128,255,0" type="BusStop" />
  <poi x="6200.80525371207" y="3946.723673508685" id="halfendpos-startpos_11001" color="128,255,0" type="BusStop" />
  <poi x="6205.414828392724" y="3959.415899401612" id="halfendpos-startpos_11002" color="128,255,0" type="BusStop" />
  <poi x="7421.018492411409" y="3132.9553358545686" id="halfendpos-startpos_11301" color="128,255,0" type="BusStop" />
  <poi x="7453.919945403493" y="3117.894739498839" id="halfendpos-startpos_11302" color="128,255,0" type="BusStop" />
  <poi x="9417.309004620169" y="2055.05154878812" id="halfendpos-startpos_11499" color="128,255,0" type="BusStop" />
  <poi x="7801.133756149143" y="8275.98440034673" id="halfendpos-startpos_118201" color="128,255,0" type="BusStop" />
  <poi x="8035.481307929706" y="8752.695012829585" id="halfendpos-startpos_118202" color="128,255,0" type="BusStop" />
  <poi x="4523.210822447337" y="4905.345676583475" id="halfendpos-startpos_12601" color="128,255,0" type="BusStop" />
  <poi x="4459.973342713306" y="4890.94146604064" id="halfendpos-startpos_12602" color="128,255,0" type="BusStop" />
  <poi x="7441.947057231251" y="1607.3597571976163" id="halfendpos-startpos_12701" color="128,255,0" type="BusStop" />
  <poi x="7432.2466881619475" y="1571.4511029214311" id="halfendpos-startpos_12702" color="128,255,0" type="BusStop" />
  <poi x="5598.514456596449" y="4027.643423383072" id="halfendpos-startpos_12901" color="128,255,0" type="BusStop" />
  <poi x="5640.930146958672" y="3986.3654450557992" id="halfendpos-startpos_12902" color="128,255,0" type="BusStop" />
  <poi x="3714.900933627962" y="4413.136802951552" id="halfendpos-startpos_13201" color="128,255,0" type="BusStop" />
  <poi x="3589.3889038696425" y="4364.317224752416" id="halfendpos-startpos_13202" color="128,255,0" type="BusStop" />
  <poi x="9520.290032955376" y="7984.191816552679" id="halfendpos-startpos_13401" color="128,255,0" type="BusStop" />
  <poi x="9609.72367386982" y="8010.5823236190945" id="halfendpos-startpos_13402" color="128,255,0" type="BusStop" />
  <poi x="7479.691543642478" y="6871.758546929716" id="halfendpos-startpos_13501" color="128,255,0" type="BusStop" />
  <poi x="7461.676663036228" y="6862.768813487147" id="halfendpos-startpos_13502" color="128,255,0" type="BusStop" />
  <poi x="6539.573294531962" y="1409.69130310268" id="halfendpos-startpos_13702" color="128,255,0" type="BusStop" />
  <poi x="3946.90130276512" y="6462.150754602844" id="halfendpos-startpos_145901" color="128,255,0" type="BusStop" />
  <poi x="3942.731240866056" y="6455.909227681184" id="halfendpos-startpos_145902" color="128,255,0" type="BusStop" />
  <poi x="6286.45007021501" y="4707.82018012821" id="halfendpos-startpos_146701" color="128,255,0" type="BusStop" />
  <poi x="6276.441226150392" y="4728.521472842461" id="halfendpos-startpos_146702" color="128,255,0" type="BusStop" />
  <poi x="6441.145667516692" y="5912.64464738522" id="halfendpos-startpos_147301" color="128,255,0" type="BusStop" />
  <poi x="6438.146324181266" y="5837.09530524763" id="halfendpos-startpos_147302" color="128,255,0" type="BusStop" />
  <poi x="2462.0399990267365" y="4576.242734720984" id="halfendpos-startpos_14798" color="128,255,0" type="BusStop" />
  <poi x="2470.1646502507547" y="4615.030238519956" id="halfendpos-startpos_14799" color="128,255,0" type="BusStop" />
  <poi x="9394.217097787994" y="6550.020722091618" id="halfendpos-startpos_148199" color="128,255,0" type="BusStop" />
  <poi x="4112.911204713203" y="6351.249266980837" id="halfendpos-startpos_148301" color="128,255,0" type="BusStop" />
  <poi x="4091.72951881594" y="6361.031861504991" id="halfendpos-startpos_148302" color="128,255,0" type="BusStop" />
  <poi x="7973.1745570985295" y="4267.000886008347" id="halfendpos-startpos_14899" color="128,255,0" type="BusStop" />
  <poi x="3682.267468857366" y="6727.861029561167" id="halfendpos-startpos_149299" color="128,255,0" type="BusStop" />
  <poi x="6773.561882314327" y="3597.420376455776" id="halfendpos-startpos_156198" color="128,255,0" type="BusStop" />
  <poi x="6811.330862067866" y="3548.3963083370377" id="halfendpos-startpos_156199" color="128,255,0" type="BusStop" />
  <poi x="7121.814844113033" y="7205.558702973362" id="halfendpos-startpos_156301" color="128,255,0" type="BusStop" />
  <poi x="6941.210058815732" y="7264.234353186254" id="halfendpos-startpos_156302" color="128,255,0" type="BusStop" />
  <poi x="7340.73035746118" y="7007.160959935393" id="halfendpos-startpos_156401" color="128,255,0" type="BusStop" />
  <poi x="7341.011385050951" y="6977.474600333088" id="halfendpos-startpos_156402" color="128,255,0" type="BusStop" />
  <poi x="6802.302210829652" y="6784.423944260558" id="halfendpos-startpos_156501" color="128,255,0" type="BusStop" />
  <poi x="7125.417668751108" y="6856.0404706286345" id="halfendpos-startpos_156502" color="128,255,0" type="BusStop" />
  <poi x="6363.106422644294" y="3096.5951752278725" id="halfendpos-startpos_157401" color="128,255,0" type="BusStop" />
  <poi x="6419.95881904496" y="2978.275981110502" id="halfendpos-startpos_157402" color="128,255,0" type="BusStop" />
  <poi x="3757.879371547033" y="6681.768032248969" id="halfendpos-startpos_159401" color="128,255,0" type="BusStop" />
  <poi x="3715.947564366472" y="6773.664821702216" id="halfendpos-startpos_159402" color="128,255,0" type="BusStop" />
  <poi x="6880.656747276973" y="4430.526618759794" id="halfendpos-startpos_162401" color="128,255,0" type="BusStop" />
  <poi x="6953.716397915504" y="4426.735674903284" id="halfendpos-startpos_162402" color="128,255,0" type="BusStop" />
  <poi x="6842.916965195165" y="3843.2573852888513" id="halfendpos-startpos_162598" color="128,255,0" type="BusStop" />
  <poi x="6884.345496562994" y="3884.609576201005" id="halfendpos-startpos_162599" color="128,255,0" type="BusStop" />
  <poi x="7231.683434903049" y="4360.156127247944" id="halfendpos-startpos_162601" color="128,255,0" type="BusStop" />
  <poi x="7190.966251417826" y="4308.044883205352" id="halfendpos-startpos_162602" color="128,255,0" type="BusStop" />
  <poi x="7197.931683235984" y="4343.839572631176" id="halfendpos-startpos_162603" color="128,255,0" type="BusStop" />
  <poi x="6493.935218589298" y="2629.578839481037" id="halfendpos-startpos_164801" color="128,255,0" type="BusStop" />
  <poi x="6568.41" y="2552.93" id="halfendpos-startpos_164802" color="128,255,0" type="BusStop" />
  <poi x="6508.100412852009" y="2625.0862376464506" id="halfendpos-startpos_164803" color="128,255,0" type="BusStop" />
  <poi x="6027.315270125204" y="3082.0817702504864" id="halfendpos-startpos_16501" color="128,255,0" type="BusStop" />
  <poi x="6084.943927552881" y="3089.811676437531" id="halfendpos-startpos_16502" color="128,255,0" type="BusStop" />
  <poi x="6418.328674068465" y="5476.266681141789" id="halfendpos-startpos_167301" color="128,255,0" type="BusStop" />
  <poi x="6406.772838366605" y="5498.007822001559" id="halfendpos-startpos_167302" color="128,255,0" type="BusStop" />
  <poi x="9765.69" y="6827.04" id="halfendpos-startpos_167799" color="128,255,0" type="BusStop" />
  <poi x="6706.186836087177" y="4705.0250677631375" id="halfendpos-startpos_168101" color="128,255,0" type="BusStop" />
  <poi x="6706.6613542834" y="4682.883013508834" id="halfendpos-startpos_168102" color="128,255,0" type="BusStop" />
  <poi x="5921.991224093717" y="1892.535072826416" id="halfendpos-startpos_173101" color="128,255,0" type="BusStop" />
  <poi x="5984.244137843511" y="1645.0411791718243" id="halfendpos-startpos_173102" color="128,255,0" type="BusStop" />
  <poi x="9222.46" y="2801.69" id="halfendpos-startpos_17901" color="128,255,0" type="BusStop" />
  <poi x="9176.817077026672" y="2795.926513081665" id="halfendpos-startpos_17902" color="128,255,0" type="BusStop" />
  <poi x="7640.267205043154" y="2015.6532825724653" id="halfendpos-startpos_18001" color="128,255,0" type="BusStop" />
  <poi x="7571.570700202678" y="2002.0512012077968" id="halfendpos-startpos_18002" color="128,255,0" type="BusStop" />
  <poi x="2627.2308088761674" y="5599.039943465256" id="halfendpos-startpos_180301" color="128,255,0" type="BusStop" />
  <poi x="2695.1903602351" y="5528.241391513455" id="halfendpos-startpos_180302" color="128,255,0" type="BusStop" />
  <poi x="2142.881245438414" y="6955.52418549667" id="halfendpos-startpos_180801" color="128,255,0" type="BusStop" />
  <poi x="2181.89" y="7242.9" id="halfendpos-startpos_180802" color="128,255,0" type="BusStop" />
  <poi x="6775.632074736498" y="1849.5819537565749" id="halfendpos-startpos_181101" color="128,255,0" type="BusStop" />
  <poi x="6755.722778545495" y="1836.7518933626309" id="halfendpos-startpos_181102" color="128,255,0" type="BusStop" />
  <poi x="5157.605995237976" y="5814.480502106725" id="halfendpos-startpos_18301" color="128,255,0" type="BusStop" />
  <poi x="5155.456160813417" y="5779.0281272713055" id="halfendpos-startpos_18302" color="128,255,0" type="BusStop" />
  <poi x="5152.215233999844" y="5651.666316955869" id="halfendpos-startpos_18303" color="128,255,0" type="BusStop" />
  <poi x="5207.727616909206" y="5621.642519544306" id="halfendpos-startpos_18304" color="128,255,0" type="BusStop" />
  <poi x="10137.935368167522" y="2556.4033881813093" id="halfendpos-startpos_184096" color="128,255,0" type="BusStop" />
  <poi x="10137.284547603644" y="2556.833309794672" id="halfendpos-startpos_184097" color="128,255,0" type="BusStop" />
  <poi x="10125.264093590717" y="2524.2786272488797" id="halfendpos-startpos_184099" color="128,255,0" type="BusStop" />
  <poi x="6939.805062882302" y="2295.96864585891" id="halfendpos-startpos_184599" color="128,255,0" type="BusStop" />
  <poi x="2463.9874102828376" y="6884.138876339627" id="halfendpos-startpos_184601" color="128,255,0" type="BusStop" />
  <poi x="2482.006194386687" y="6861.744815446175" id="halfendpos-startpos_184602" color="128,255,0" type="BusStop" />
  <poi x="1754.3620003941817" y="8155.537526004109" id="halfendpos-startpos_184901" color="128,255,0" type="BusStop" />
  <poi x="1653.9482210086203" y="8195.54298515958" id="halfendpos-startpos_184902" color="128,255,0" type="BusStop" />
  <poi x="5657.4290949502765" y="6362.10198092324" id="halfendpos-startpos_185001" color="128,255,0" type="BusStop" />
  <poi x="5621.200392735793" y="6410.717678041108" id="halfendpos-startpos_185002" color="128,255,0" type="BusStop" />
  <poi x="6500.97746408916" y="1728.624459065638" id="halfendpos-startpos_18501" color="128,255,0" type="BusStop" />
  <poi x="6431.056225351647" y="1708.3989586695166" id="halfendpos-startpos_18502" color="128,255,0" type="BusStop" />
  <poi x="5244.372407685652" y="6588.085900751516" id="halfendpos-startpos_185101" color="128,255,0" type="BusStop" />
  <poi x="5262.089870891048" y="6633.221488117613" id="halfendpos-startpos_185102" color="128,255,0" type="BusStop" />
  <poi x="4797.18871908659" y="7638.4874040755585" id="halfendpos-startpos_185301" color="128,255,0" type="BusStop" />
  <poi x="4882.90789707541" y="7604.663453604495" id="halfendpos-startpos_185302" color="128,255,0" type="BusStop" />
  <poi x="7615.009051393784" y="7552.250570796177" id="halfendpos-startpos_185699" color="128,255,0" type="BusStop" />
  <poi x="7296.465609245944" y="6045.696176217994" id="halfendpos-startpos_18601" color="128,255,0" type="BusStop" />
  <poi x="7144.039981380952" y="6062.776888263921" id="halfendpos-startpos_18602" color="128,255,0" type="BusStop" />
  <poi x="8556.358854262982" y="1183.147739295192" id="halfendpos-startpos_186301" color="128,255,0" type="BusStop" />
  <poi x="8675.613971304561" y="1267.7011982525885" id="halfendpos-startpos_186302" color="128,255,0" type="BusStop" />
  <poi x="8757.718123700593" y="1397.9576226409815" id="halfendpos-startpos_186501" color="128,255,0" type="BusStop" />
  <poi x="8740.417187190516" y="1410.0264396682717" id="halfendpos-startpos_186502" color="128,255,0" type="BusStop" />
  <poi x="8288.962590003284" y="1639.8092230965976" id="halfendpos-startpos_186601" color="128,255,0" type="BusStop" />
  <poi x="8593.783483092922" y="1510.7958838437414" id="halfendpos-startpos_186602" color="128,255,0" type="BusStop" />
  <poi x="6982.935304247585" y="3389.3894888822915" id="halfendpos-startpos_18701" color="128,255,0" type="BusStop" />
  <poi x="7023.076660284472" y="3370.0328658947824" id="halfendpos-startpos_18702" color="128,255,0" type="BusStop" />
  <poi x="2721.751581159269" y="6754.909832404029" id="halfendpos-startpos_187401" color="128,255,0" type="BusStop" />
  <poi x="2626.6878843794857" y="6749.994524321816" id="halfendpos-startpos_187402" color="128,255,0" type="BusStop" />
  <poi x="4481.944169340744" y="7565.310747115308" id="halfendpos-startpos_188401" color="128,255,0" type="BusStop" />
  <poi x="4530.486191192474" y="7689.349101660638" id="halfendpos-startpos_188402" color="128,255,0" type="BusStop" />
  <poi x="4530.486191192474" y="7689.349101660638" id="halfendpos-startpos_188501" color="128,255,0" type="BusStop" />
  <poi x="4481.944169340744" y="7565.310747115308" id="halfendpos-startpos_188502" color="128,255,0" type="BusStop" />
  <poi x="4532.699385855319" y="7229.660748876589" id="halfendpos-startpos_188601" color="128,255,0" type="BusStop" />
  <poi x="4523.4528159627" y="7231.732720532861" id="halfendpos-startpos_188602" color="128,255,0" type="BusStop" />
  <poi x="1710.1328420178363" y="5850.092963873981" id="halfendpos-startpos_189199" color="128,255,0" type="BusStop" />
  <poi x="1507.870248712438" y="5858.654307744009" id="halfendpos-startpos_189299" color="128,255,0" type="BusStop" />
  <poi x="9525.506361114749" y="6699.259279012776" id="halfendpos-startpos_189799" color="128,255,0" type="BusStop" />
  <poi x="7283.612391080063" y="7988.919252545122" id="halfendpos-startpos_190101" color="128,255,0" type="BusStop" />
  <poi x="7251.866812808295" y="7987.325146034117" id="halfendpos-startpos_190102" color="128,255,0" type="BusStop" />
  <poi x="4303.907706329153" y="7489.80587958171" id="halfendpos-startpos_190601" color="128,255,0" type="BusStop" />
  <poi x="4303.515277942742" y="7489.993562723036" id="halfendpos-startpos_190602" color="128,255,0" type="BusStop" />
  <poi x="4302.789059894326" y="7490.340884398366" id="halfendpos-startpos_190603" color="128,255,0" type="BusStop" />
  <poi x="4302.635697076647" y="7490.414231832908" id="halfendpos-startpos_190604" color="128,255,0" type="BusStop" />
  <poi x="4380.69740823823" y="7447.32038330638" id="halfendpos-startpos_190605" color="128,255,0" type="BusStop" />
  <poi x="4380.547496672742" y="7447.562770439976" id="halfendpos-startpos_190606" color="128,255,0" type="BusStop" />
  <poi x="4380.928850655124" y="7446.946171591354" id="halfendpos-startpos_190607" color="128,255,0" type="BusStop" />
  <poi x="4381.018271588923" y="7446.801589792367" id="halfendpos-startpos_190608" color="128,255,0" type="BusStop" />
  <poi x="7044.618336433288" y="2930.4037989973376" id="halfendpos-startpos_19701" color="128,255,0" type="BusStop" />
  <poi x="7035.134863828652" y="2975.0013427053063" id="halfendpos-startpos_19702" color="128,255,0" type="BusStop" />
  <poi x="6746.778976441898" y="5161.337528247662" id="halfendpos-startpos_20101" color="128,255,0" type="BusStop" />
  <poi x="6771.464642304654" y="5069.636335294168" id="halfendpos-startpos_20102" color="128,255,0" type="BusStop" />
  <poi x="7387.07108116922" y="1308.61843834336" id="halfendpos-startpos_20201" color="128,255,0" type="BusStop" />
  <poi x="7376.056023760609" y="1244.5032965513024" id="halfendpos-startpos_20202" color="128,255,0" type="BusStop" />
  <poi x="4774.311352543514" y="5394.436611131267" id="halfendpos-startpos_20401" color="128,255,0" type="BusStop" />
  <poi x="4675.216933794381" y="5537.862315285711" id="halfendpos-startpos_20402" color="128,255,0" type="BusStop" />
  <poi x="2208.4391838264646" y="7642.448660710969" id="halfendpos-startpos_21401" color="128,255,0" type="BusStop" />
  <poi x="2167.55" y="7660.66" id="halfendpos-startpos_21402" color="128,255,0" type="BusStop" />
  <poi x="2159.485106662602" y="6291.324300947678" id="halfendpos-startpos_21601" color="128,255,0" type="BusStop" />
  <poi x="2152.947607637965" y="6409.763302119361" id="halfendpos-startpos_21602" color="128,255,0" type="BusStop" />
  <poi x="4138.9665549387255" y="6000.082420992505" id="halfendpos-startpos_23101" color="128,255,0" type="BusStop" />
  <poi x="4169.231559233357" y="6003.23734245276" id="halfendpos-startpos_23102" color="128,255,0" type="BusStop" />
  <poi x="7565.600847740447" y="4917.808938866537" id="halfendpos-startpos_23201" color="128,255,0" type="BusStop" />
  <poi x="7675.710169639275" y="4936.728661097265" id="halfendpos-startpos_23202" color="128,255,0" type="BusStop" />
  <poi x="7346.8455383139135" y="5368.468820090384" id="halfendpos-startpos_23301" color="128,255,0" type="BusStop" />
  <poi x="7590.188132672479" y="5387.704937578022" id="halfendpos-startpos_23302" color="128,255,0" type="BusStop" />
  <poi x="3031.816983680925" y="5443.419832493555" id="halfendpos-startpos_2399" color="128,255,0" type="BusStop" />
  <poi x="7657.572581190167" y="1924.097448593537" id="halfendpos-startpos_24101" color="128,255,0" type="BusStop" />
  <poi x="7757.927501396667" y="1891.4627826320773" id="halfendpos-startpos_24102" color="128,255,0" type="BusStop" />
  <poi x="7626.52" y="6969.24" id="halfendpos-startpos_24701" color="128,255,0" type="BusStop" />
  <poi x="7620.247770347029" y="6939.51950280859" id="halfendpos-startpos_24702" color="128,255,0" type="BusStop" />
  <poi x="7922.459966077192" y="6184.935371994277" id="halfendpos-startpos_25999" color="128,255,0" type="BusStop" />
  <poi x="8101.565322633793" y="5351.526225711094" id="halfendpos-startpos_26299" color="128,255,0" type="BusStop" />
  <poi x="10157.514893652406" y="5561.838753239696" id="halfendpos-startpos_26601" color="128,255,0" type="BusStop" />
  <poi x="10118.251133678135" y="5557.659751377943" id="halfendpos-startpos_26602" color="128,255,0" type="BusStop" />
  <poi x="4065.4783559519433" y="4856.601054161648" id="halfendpos-startpos_27801" color="128,255,0" type="BusStop" />
  <poi x="3959.2004440063024" y="4853.091020033076" id="halfendpos-startpos_27802" color="128,255,0" type="BusStop" />
  <poi x="7284.253485785124" y="2255.4772878184235" id="halfendpos-startpos_28201" color="128,255,0" type="BusStop" />
  <poi x="7342.322157311064" y="2158.30587392681" id="halfendpos-startpos_28202" color="128,255,0" type="BusStop" />
  <poi x="5666.835038346611" y="4624.01654119648" id="halfendpos-startpos_28401" color="128,255,0" type="BusStop" />
  <poi x="5662.142247469567" y="4626.152440189919" id="halfendpos-startpos_28402" color="128,255,0" type="BusStop" />
  <poi x="3040.3136810046617" y="4287.030118772894" id="halfendpos-startpos_28601" color="128,255,0" type="BusStop" />
  <poi x="3140.717489528693" y="4260.45938677165" id="halfendpos-startpos_28602" color="128,255,0" type="BusStop" />
  <poi x="6183.788533149953" y="3364.041507417364" id="halfendpos-startpos_28701" color="128,255,0" type="BusStop" />
  <poi x="6186.071063423769" y="3333.977717368529" id="halfendpos-startpos_28702" color="128,255,0" type="BusStop" />
  <poi x="4515.270117471729" y="4601.213839284363" id="halfendpos-startpos_29101" color="128,255,0" type="BusStop" />
  <poi x="4538.366937666393" y="4600.531182379846" id="halfendpos-startpos_29102" color="128,255,0" type="BusStop" />
  <poi x="4037.277409257893" y="5679.0706317551685" id="halfendpos-startpos_30499" color="128,255,0" type="BusStop" />
  <poi x="6376.313015215763" y="5009.149548548056" id="halfendpos-startpos_30701" color="128,255,0" type="BusStop" />
  <poi x="7166.279377449174" y="4824.689275026297" id="halfendpos-startpos_30801" color="128,255,0" type="BusStop" />
  <poi x="7195.419955276999" y="4837.580723192741" id="halfendpos-startpos_30802" color="128,255,0" type="BusStop" />
  <poi x="5417.323078947163" y="5662.988588305721" id="halfendpos-startpos_30901" color="128,255,0" type="BusStop" />
  <poi x="7384.335392720792" y="6444.94571851639" id="halfendpos-startpos_31301" color="128,255,0" type="BusStop" />
  <poi x="7368.992678945871" y="6304.067217989317" id="halfendpos-startpos_31302" color="128,255,0" type="BusStop" />
  <poi x="4405.029702378059" y="5506.536688047207" id="halfendpos-startpos_3202" color="128,255,0" type="BusStop" />
  <poi x="4656.582233911808" y="5355.271013684208" id="halfendpos-startpos_32501" color="128,255,0" type="BusStop" />
  <poi x="1898.020936113552" y="5537.361826268374" id="halfendpos-startpos_34002" color="128,255,0" type="BusStop" />
  <poi x="2019.1103696524565" y="5591.414037972765" id="halfendpos-startpos_34098" color="128,255,0" type="BusStop" />
  <poi x="2022.5535656684783" y="5590.935764430477" id="halfendpos-startpos_34099" color="128,255,0" type="BusStop" />
  <poi x="9675.392882874656" y="2961.990960958219" id="halfendpos-startpos_34101" color="128,255,0" type="BusStop" />
  <poi x="9705.546896278103" y="2975.4197016428284" id="halfendpos-startpos_34102" color="128,255,0" type="BusStop" />
  <poi x="6725.216026987153" y="6811.2518349393695" id="halfendpos-startpos_3501" color="128,255,0" type="BusStop" />
  <poi x="6764.36065752324" y="6798.139346823379" id="halfendpos-startpos_3502" color="128,255,0" type="BusStop" />
  <poi x="8410.302407303923" y="3564.565756318057" id="halfendpos-startpos_3801" color="128,255,0" type="BusStop" />
  <poi x="8587.986811264855" y="3561.7207689305537" id="halfendpos-startpos_3802" color="128,255,0" type="BusStop" />
  <poi x="4350.655178546229" y="5511.664729318719" id="halfendpos-startpos_38201" color="128,255,0" type="BusStop" />
  <poi x="2509.296963206194" y="5027.660716605846" id="halfendpos-startpos_39001" color="128,255,0" type="BusStop" />
  <poi x="2509.296963206194" y="5027.660716605846" id="halfendpos-startpos_39002" color="128,255,0" type="BusStop" />
  <poi x="2243.922470442842" y="5554.52522405515" id="halfendpos-startpos_3901" color="128,255,0" type="BusStop" />
  <poi x="2195.750983348036" y="5712.51818661633" id="halfendpos-startpos_3902" color="128,255,0" type="BusStop" />
  <poi x="2503.743813825922" y="4971.130771650679" id="halfendpos-startpos_39099" color="128,255,0" type="BusStop" />
  <poi x="7054.906157619379" y="5496.815547097312" id="halfendpos-startpos_39601" color="128,255,0" type="BusStop" />
  <poi x="7072.671662864037" y="5550.844917137535" id="halfendpos-startpos_39602" color="128,255,0" type="BusStop" />
  <poi x="9488.13458708672" y="3537.01489142149" id="halfendpos-startpos_4001" color="128,255,0" type="BusStop" />
  <poi x="9643.441773615648" y="3537.344734396563" id="halfendpos-startpos_4002" color="128,255,0" type="BusStop" />
  <poi x="9822.106838574968" y="7723.073509235324" id="halfendpos-startpos_41801" color="128,255,0" type="BusStop" />
  <poi x="5176.935347588928" y="4557.23442893355" id="halfendpos-startpos_42501" color="128,255,0" type="BusStop" />
  <poi x="5179.5653544893175" y="4552.311101587317" id="halfendpos-startpos_42502" color="128,255,0" type="BusStop" />
  <poi x="4793.135101392632" y="5675.183749723365" id="halfendpos-startpos_42601" color="128,255,0" type="BusStop" />
  <poi x="7782.9683016594845" y="5388.920216294536" id="halfendpos-startpos_42701" color="128,255,0" type="BusStop" />
  <poi x="7765.447236930578" y="5343.9250747460055" id="halfendpos-startpos_42702" color="128,255,0" type="BusStop" />
  <poi x="7934.392911835844" y="5409.180901624991" id="halfendpos-startpos_42704" color="128,255,0" type="BusStop" />
  <poi x="5102.639359321083" y="6024.080200066451" id="halfendpos-startpos_43001" color="128,255,0" type="BusStop" />
  <poi x="5071.715281219815" y="6081.857279794221" id="halfendpos-startpos_43002" color="128,255,0" type="BusStop" />
  <poi x="5449.199961402479" y="5633.230353786237" id="halfendpos-startpos_44302" color="128,255,0" type="BusStop" />
  <poi x="4933.8598012024895" y="6074.167233244364" id="halfendpos-startpos_44701" color="128,255,0" type="BusStop" />
  <poi x="4854.43934871275" y="6028.538253091011" id="halfendpos-startpos_44702" color="128,255,0" type="BusStop" />
  <poi x="6698.6425790906815" y="6243.853418327714" id="halfendpos-startpos_44801" color="128,255,0" type="BusStop" />
  <poi x="6625.8075162635805" y="6261.583551471248" id="halfendpos-startpos_44802" color="128,255,0" type="BusStop" />
  <poi x="2259.740375759519" y="5180.751298074979" id="halfendpos-startpos_46201" color="128,255,0" type="BusStop" />
  <poi x="2233.9089257813" y="5174.816361044675" id="halfendpos-startpos_46202" color="128,255,0" type="BusStop" />
  <poi x="7011.9003708359205" y="4051.595613341357" id="halfendpos-startpos_46501" color="128,255,0" type="BusStop" />
  <poi x="6094.629014582481" y="2622.93413520529" id="halfendpos-startpos_46701" color="128,255,0" type="BusStop" />
  <poi x="6102.919529397573" y="2604.176641370829" id="halfendpos-startpos_46702" color="128,255,0" type="BusStop" />
  <poi x="4687.088649941456" y="3975.000594668264" id="halfendpos-startpos_46801" color="128,255,0" type="BusStop" />
  <poi x="4657.168498819362" y="3923.671098445433" id="halfendpos-startpos_46802" color="128,255,0" type="BusStop" />
  <poi x="9868.670224434887" y="5497.46588445267" id="halfendpos-startpos_47301" color="128,255,0" type="BusStop" />
  <poi x="9890.830303498546" y="5511.496705349607" id="halfendpos-startpos_47302" color="128,255,0" type="BusStop" />
  <poi x="7943.669983756352" y="1807.6171506299004" id="halfendpos-startpos_5001" color="128,255,0" type="BusStop" />
  <poi x="7927.660724729598" y="1819.7717319937296" id="halfendpos-startpos_5002" color="128,255,0" type="BusStop" />
  <poi x="4446.941852457124" y="6742.464901567665" id="halfendpos-startpos_501" color="128,255,0" type="BusStop" />
  <poi x="4497.736546591408" y="6796.360771130301" id="halfendpos-startpos_502" color="128,255,0" type="BusStop" />
  <poi x="9151.270793576448" y="5158.902093881268" id="halfendpos-startpos_50501" color="128,255,0" type="BusStop" />
  <poi x="9224.56794545809" y="5179.233468652164" id="halfendpos-startpos_50502" color="128,255,0" type="BusStop" />
  <poi x="7205.6599853641255" y="1170.4537096591855" id="halfendpos-startpos_50899" color="128,255,0" type="BusStop" />
  <poi x="6077.008756427835" y="2109.104035250834" id="halfendpos-startpos_51201" color="128,255,0" type="BusStop" />
  <poi x="5986.237472185604" y="2108.5736471485325" id="halfendpos-startpos_51202" color="128,255,0" type="BusStop" />
  <poi x="5783.240481239363" y="2993.649000518711" id="halfendpos-startpos_51601" color="128,255,0" type="BusStop" />
  <poi x="5818.880747181291" y="3002.6269678746294" id="halfendpos-startpos_51602" color="128,255,0" type="BusStop" />
  <poi x="8758.750426970208" y="2706.7868971993603" id="halfendpos-startpos_51901" color="128,255,0" type="BusStop" />
  <poi x="8784.876398831091" y="2706.928112080889" id="halfendpos-startpos_51902" color="128,255,0" type="BusStop" />
  <poi x="4870.988945261977" y="5645.608368767813" id="halfendpos-startpos_52602" color="128,255,0" type="BusStop" />
  <poi x="9872.563491411567" y="1257.1735947026016" id="halfendpos-startpos_53999" color="128,255,0" type="BusStop" />
  <poi x="6263.20885198916" y="5436.258804547313" id="halfendpos-startpos_54393" color="128,255,0" type="BusStop" />
  <poi x="6288.493011533091" y="5442.470227202387" id="halfendpos-startpos_54395" color="128,255,0" type="BusStop" />
  <poi x="6308.893945914998" y="5417.101646056445" id="halfendpos-startpos_54396" color="128,255,0" type="BusStop" />
  <poi x="6305.100903777334" y="5417.057896826178" id="halfendpos-startpos_54397" color="128,255,0" type="BusStop" />
  <poi x="6301.939662489612" y="5427.707772068032" id="halfendpos-startpos_54398" color="128,255,0" type="BusStop" />
  <poi x="6289.27001040808" y="5389.387386663912" id="halfendpos-startpos_54399" color="128,255,0" type="BusStop" />
  <poi x="4418.910191994153" y="6285.876070703847" id="halfendpos-startpos_54401" color="128,255,0" type="BusStop" />
  <poi x="4420.326682771257" y="6290.658732520724" id="halfendpos-startpos_54402" color="128,255,0" type="BusStop" />
  <poi x="6588.052681633724" y="5265.096886159129" id="halfendpos-startpos_54702" color="128,255,0" type="BusStop" />
  <poi x="6743.617912553376" y="5984.017937126178" id="halfendpos-startpos_55101" color="128,255,0" type="BusStop" />
  <poi x="6768.848945591738" y="6109.515365907395" id="halfendpos-startpos_55102" color="128,255,0" type="BusStop" />
  <poi x="6952.769139484377" y="7794.377507044782" id="halfendpos-startpos_55202" color="128,255,0" type="BusStop" />
  <poi x="6317.0117030425545" y="1339.7812229807498" id="halfendpos-startpos_56402" color="128,255,0" type="BusStop" />