<additional>
  <poi x="6723.324156820373" y="1744.3077174894936" id="offset_5_101" color="0,100,178" type="BusStop" />
  <poi x="6740.658990932085" y="1724.044517761205" id="offset_5_102" color="0,100,178" type="BusStop" />
  <poi x="9610.77081496662" y="3188.1698334110747" id="offset_5_103401" color="0,100,178" type="BusStop" />
  <poi x="9633.627154583022" y="3360.16996181648" id="offset_5_103402" color="0,100,178" type="BusStop" />
  <poi x="3726.846874228531" y="5264.639568433962" id="offset_5_104201" color="0,100,178" type="BusStop" />
  <poi x="3692.9844601665895" y="5274.368728597568" id="offset_5_104203" color="0,100,178" type="BusStop" />
  <poi x="9154.340716140196" y="1889.483983434616" id="offset_5_10599" color="0,100,178" type="BusStop" />
  <poi x="7442.973650918876" y="4365.041893827637" id="offset_5_10801" color="0,100,178" type="BusStop" />
  <poi x="7499.804141447997" y="4213.624898091632" id="offset_5_10802" color="0,100,178" type="BusStop" />
  <poi x="4750.417029430759" y="4230.208340339462" id="offset_5_10902" color="0,100,178" type="BusStop" />
  <poi x="6194.322020658489" y="3951.4106436571865" id="offset_5_11001" color="0,100,178" type="BusStop" />
  <poi x="6211.846010013204" y="3954.667464403609" id="offset_5_11002" color="0,100,178" type="BusStop" />
  <poi x="7414.05326631208" y="3136.890513790219" id="offset_5_11301" color="0,100,178" type="BusStop" />
  <poi x="7460.867671309036" y="3113.928745961092" id="offset_5_11302" color="0,100,178" type="BusStop" />
  <poi x="9419.488078700064" y="2062.7490572262" id="offset_5_11499" color="0,100,178" type="BusStop" />
  <poi x="7797.863752365055" y="8268.683230902589" id="offset_5_118201" color="0,100,178" type="BusStop" />
  <poi x="8039.086656896041" y="8759.836543395993" id="offset_5_118202" color="0,100,178" type="BusStop" />
  <poi x="4523.210822447337" y="4905.345676583475" id="offset_5_12601" color="0,100,178" type="BusStop" />
  <poi x="4459.973342713306" y="4890.94146604064" id="offset_5_12602" color="0,100,178" type="BusStop" />
  <poi x="7444.791945088943" y="1614.836829691391" id="offset_5_12701" color="0,100,178" type="BusStop" />
  <poi x="7429.553341600749" y="1563.9181165082427" id="offset_5_12702" color="0,100,178" type="BusStop" />
  <poi x="5598.514456596449" y="4027.643423383072" id="offset_5_12901" color="0,100,178" type="BusStop" />
  <poi x="5640.930146958672" y="3986.3654450557992" id="offset_5_12902" color="0,100,178" type="BusStop" />
  <poi x="3714.900933627962" y="4413.136802951552" id="offset_5_13201" color="0,100,178" type="BusStop" />
  <poi x="3589.3889038696425" y="4364.317224752416" id="offset_5_13202" color="0,100,178" type="BusStop" />
  <poi x="9512.487707935115" y="7982.44624412344" id="offset_5_13401" color="0,100,178" type="BusStop" />
  <poi x="9617.696369572324" y="8011.177700273912" id="offset_5_13402" color="0,100,178" type="BusStop" />
  <poi x="7478.193495109598" y="6871.835036099781" id="offset_5_13501" color="0,100,178" type="BusStop" />
  <poi x="7461.676663036228" y="6862.768813487147" id="offset_5_13502" color="0,100,178" type="BusStop" />
  <poi x="6538.522534255356" y="1410.761771617446" id="offset_5_13702" color="0,100,178" type="BusStop" />
  <poi x="3946.90130276512" y="6462.150754602844" id="offset_5_145901" color="0,100,178" type="BusStop" />
  <poi x="3942.731240866056" y="6455.909227681184" id="offset_5_145902" color="0,100,178" type="BusStop" />
  <poi x="6286.45007021501" y="4707.82018012821" id="offset_5_146701" color="0,100,178" type="BusStop" />
  <poi x="6276.441226150392" y="4728.521472842461" id="offset_5_146702" color="0,100,178" type="BusStop" />
  <poi x="6441.145667516692" y="5912.64464738522" id="offset_5_147301" color="0,100,178" type="BusStop" />
  <poi x="6438.146324181266" y="5837.09530524763" id="offset_5_147302" color="0,100,178" type="BusStop" />
  <poi x="2462.9938457795142" y="4584.185667200379" id="offset_5_14798" color="0,100,178" type="BusStop" />
  <poi x="2469.1481370705164" y="4607.095082506719" id="offset_5_14799" color="0,100,178" type="BusStop" />
  <poi x="9394.217097787994" y="6550.020722091618" id="offset_5_148199" color="0,100,178" type="BusStop" />
  <poi x="4112.911204713203" y="6351.249266980837" id="offset_5_148301" color="0,100,178" type="BusStop" />
  <poi x="4091.72951881594" y="6361.031861504991" id="offset_5_148302" color="0,100,178" type="BusStop" />
  <poi x="7966.00326490606" y="4270.557823044684" id="offset_5_14899" color="0,100,178" type="BusStop" />
  <poi x="3684.322802243365" y="6728.800819257002" id="offset_5_149299" color="0,100,178" type="BusStop" />
  <poi x="6772.033583211978" y="3599.585278729265" id="offset_5_156198" color="0,100,178" type="BusStop" />
  <poi x="6813.1494849833225" y="3545.842715634319" id="offset_5_156199" color="0,100,178" type="BusStop" />
  <poi x="7128.058016966551" y="7200.556424220524" id="offset_5_156301" color="0,100,178" type="BusStop" />
  <poi x="6933.74540723682" y="7267.111674302405" id="offset_5_156302" color="0,100,178" type="BusStop" />
  <poi x="7342.950688098023" y="6999.478654675099" id="offset_5_156401" color="0,100,178" type="BusStop" />
  <poi x="7341.273490931221" y="6980.919403623738" id="offset_5_156402" color="0,100,178" type="BusStop" />
  <poi x="6794.4608503190975" y="6786.009209330984" id="offset_5_156501" color="0,100,178" type="BusStop" />
  <poi x="7133.037564904273" y="6858.477104087937" id="offset_5_156502" color="0,100,178" type="BusStop" />
  <poi x="6363.106422644294" y="3096.5951752278725" id="offset_5_157401" color="0,100,178" type="BusStop" />
  <poi x="6419.95881904496" y="2978.275981110502" id="offset_5_157402" color="0,100,178" type="BusStop" />
  <poi x="3757.879371547033" y="6681.768032248969" id="offset_5_159401" color="0,100,178" type="BusStop" />
  <poi x="3715.107273235704" y="6775.676366087894" id="offset_5_159402" color="0,100,178" type="BusStop" />
  <poi x="6872.723593328909" y="4429.7433012634565" id="offset_5_162401" color="0,100,178" type="BusStop" />
  <poi x="6961.545526838018" y="4425.09106543151" id="offset_5_162402" color="0,100,178" type="BusStop" />
  <poi x="6847.017294305832" y="3850.126686649558" id="offset_5_162598" color="0,100,178" type="BusStop" />
  <poi x="6880.4360679775" y="3877.6321359549993" id="offset_5_162599" color="0,100,178" type="BusStop" />
  <poi x="7223.724398039634" y="4360.964664326132" id="offset_5_162601" color="0,100,178" type="BusStop" />
  <poi x="7188.593173622241" y="4300.404955078981" id="offset_5_162602" color="0,100,178" type="BusStop" />
  <poi x="7199.899878167686" y="4351.593681781221" id="offset_5_162603" color="0,100,178" type="BusStop" />
  <poi x="6493.935218589298" y="2629.578839481037" id="offset_5_164801" color="0,100,178" type="BusStop" />
  <poi x="6568.777375080951" y="2552.5682336989103" id="offset_5_164802" color="0,100,178" type="BusStop" />
  <poi x="6508.100412852009" y="2625.0862376464506" id="offset_5_164803" color="0,100,178" type="BusStop" />
  <poi x="6033.990808436784" y="3082.521415847086" id="offset_5_16501" color="0,100,178" type="BusStop" />
  <poi x="6084.943927552881" y="3089.811676437531" id="offset_5_16502" color="0,100,178" type="BusStop" />
  <poi x="6419.35480665414" y="5474.247454330206" id="offset_5_167301" color="0,100,178" type="BusStop" />
  <poi x="6405.989381943461" y="5500.249879323092" id="offset_5_167302" color="0,100,178" type="BusStop" />
  <poi x="9764.188399782914" y="6827.524541923085" id="offset_5_167799" color="0,100,178" type="BusStop" />
  <poi x="6706.186836087177" y="4705.0250677631375" id="offset_5_168101" color="0,100,178" type="BusStop" />
  <poi x="6706.6613542834" y="4682.883013508834" id="offset_5_168102" color="0,100,178" type="BusStop" />
  <poi x="5918.919480139907" y="1903.321203461738" id="offset_5_173101" color="0,100,178" type="BusStop" />
  <poi x="5985.490822247504" y="1637.1389150660864" id="offset_5_173102" color="0,100,178" type="BusStop" />
  <poi x="9222.46" y="2801.69" id="offset_5_17901" color="0,100,178" type="BusStop" />
  <poi x="9184.357337317952" y="2798.5994281083326" id="offset_5_17902" color="0,100,178" type="BusStop" />
  <poi x="7648.141823324437" y="2017.0591458564563" id="offset_5_18001" color="0,100,178" type="BusStop" />
  <poi x="7561.749154631389" y="1998.3522462755072" id="offset_5_18002" color="0,100,178" type="BusStop" />
  <poi x="2623.4564729719878" y="5603.977616346526" id="offset_5_180301" color="0,100,178" type="BusStop" />
  <poi x="2700.1347231644545" y="5521.952419610438" id="offset_5_180302" color="0,100,178" type="BusStop" />
  <poi x="2141.963555937852" y="6947.576994421796" id="offset_5_180801" color="0,100,178" type="BusStop" />
  <poi x="2181.89" y="7242.9" id="offset_5_180802" color="0,100,178" type="BusStop" />
  <poi x="6777.009382466639" y="1850.224933862404" id="offset_5_181101" color="0,100,178" type="BusStop" />
  <poi x="6754.318368056596" y="1836.096049495029" id="offset_5_181102" color="0,100,178" type="BusStop" />
  <poi x="5159.093749312838" y="5808.27639154898" id="offset_5_18301" color="0,100,178" type="BusStop" />
  <poi x="5154.568059975235" y="5783.342672658854" id="offset_5_18302" color="0,100,178" type="BusStop" />
  <poi x="5158.10843060002" y="5651.158912943595" id="offset_5_18303" color="0,100,178" type="BusStop" />
  <poi x="5202.33885318056" y="5621.527083515066" id="offset_5_18304" color="0,100,178" type="BusStop" />
  <poi x="10138.09807330849" y="2556.2959077779683" id="offset_5_184096" color="0,100,178" type="BusStop" />
  <poi x="10138.09807330849" y="2556.2959077779683" id="offset_5_184097" color="0,100,178" type="BusStop" />
  <poi x="10097.460877004733" y="2513.6376661988475" id="offset_5_184099" color="0,100,178" type="BusStop" />
  <poi x="6944.574456289777" y="2289.6061803230477" id="offset_5_184599" color="0,100,178" type="BusStop" />
  <poi x="2471.982850108784" y="6883.868798592164" id="offset_5_184601" color="0,100,178" type="BusStop" />
  <poi x="2482.2239209179565" y="6869.741852094682" id="offset_5_184602" color="0,100,178" type="BusStop" />
  <poi x="1754.3620003941817" y="8155.537526004109" id="offset_5_184901" color="0,100,178" type="BusStop" />
  <poi x="1653.9482210086203" y="8195.54298515958" id="offset_5_184902" color="0,100,178" type="BusStop" />
  <poi x="5657.4290949502765" y="6362.10198092324" id="offset_5_185001" color="0,100,178" type="BusStop" />
  <poi x="5621.200392735793" y="6410.717678041108" id="offset_5_185002" color="0,100,178" type="BusStop" />
  <poi x="6507.317413919948" y="1730.6966405593994" id="offset_5_18501" color="0,100,178" type="BusStop" />
  <poi x="6423.249317442941" y="1706.6519071805833" id="offset_5_18502" color="0,100,178" type="BusStop" />
  <poi x="5244.372407685652" y="6588.085900751516" id="offset_5_185101" color="0,100,178" type="BusStop" />
  <poi x="5262.089870891048" y="6633.221488117613" id="offset_5_185102" color="0,100,178" type="BusStop" />
  <poi x="4797.18871908659" y="7638.4874040755585" id="offset_5_185301" color="0,100,178" type="BusStop" />
  <poi x="4882.90789707541" y="7604.663453604495" id="offset_5_185302" color="0,100,178" type="BusStop" />
  <poi x="7613.44942672474" y="7543.008025447296" id="offset_5_185699" color="0,100,178" type="BusStop" />
  <poi x="7296.465609245944" y="6045.696176217994" id="offset_5_18601" color="0,100,178" type="BusStop" />
  <poi x="7144.039981380952" y="6062.776888263921" id="offset_5_18602" color="0,100,178" type="BusStop" />
  <poi x="8551.614943947301" y="1176.7060535750738" id="offset_5_186301" color="0,100,178" type="BusStop" />
  <poi x="8683.048798711527" y="1270.6508005780595" id="offset_5_186302" color="0,100,178" type="BusStop" />
  <poi x="8750.4607418524" y="1401.3128704394458" id="offset_5_186501" color="0,100,178" type="BusStop" />
  <poi x="8740.417187190516" y="1410.0264396682717" id="offset_5_186502" color="0,100,178" type="BusStop" />
  <poi x="8288.962590003284" y="1639.8092230965976" id="offset_5_186601" color="0,100,178" type="BusStop" />
  <poi x="8593.783483092922" y="1510.7958838437414" id="offset_5_186602" color="0,100,178" type="BusStop" />
  <poi x="6975.99665547984" y="3393.3713418778043" id="offset_5_18701" color="0,100,178" type="BusStop" />
  <poi x="7029.996594317847" y="3366.0187410743624" id="offset_5_18702" color="0,100,178" type="BusStop" />
  <poi x="2729.7504265117614" y="6754.9953064751735" id="offset_5_187401" color="0,100,178" type="BusStop" />
  <poi x="2618.6891862998023" y="6749.850201662237" id="offset_5_187402" color="0,100,178" type="BusStop" />
  <poi x="4481.944169340744" y="7565.310747115308" id="offset_5_188401" color="0,100,178" type="BusStop" />
  <poi x="4530.486191192474" y="7689.349101660638" id="offset_5_188402" color="0,100,178" type="BusStop" />
  <poi x="4530.486191192474" y="7689.349101660638" id="offset_5_188501" color="0,100,178" type="BusStop" />
  <poi x="4481.944169340744" y="7565.310747115308" id="offset_5_188502" color="0,100,178" type="BusStop" />
  <poi x="4532.699385855319" y="7229.660748876589" id="offset_5_188601" color="0,100,178" type="BusStop" />
  <poi x="4523.4528159627" y="7231.732720532861" id="offset_5_188602" color="0,100,178" type="BusStop" />
  <poi x="1717.106672904444" y="5847.918404662325" id="offset_5_189199" color="0,100,178" type="BusStop" />
  <poi x="1508.2454802740149" y="5866.645502978465" id="offset_5_189299" color="0,100,178" type="BusStop" />
  <poi x="9525.506361114749" y="6699.259279012776" id="offset_5_189799" color="0,100,178" type="BusStop" />
  <poi x="7275.837039606121" y="7987.037083090843" id="offset_5_190101" color="0,100,178" type="BusStop" />
  <poi x="7259.566970483525" y="7989.4886625374675" id="offset_5_190102" color="0,100,178" type="BusStop" />
  <poi x="4301.990671108178" y="7490.72272251348" id="offset_5_190601" color="0,100,178" type="BusStop" />
  <poi x="4301.990671108178" y="7490.72272251348" id="offset_5_190602" color="0,100,178" type="BusStop" />
  <poi x="4301.990671108178" y="7490.72272251348" id="offset_5_190603" color="0,100,178" type="BusStop" />
  <poi x="4301.990671108178" y="7490.72272251348" id="offset_5_190604" color="0,100,178" type="BusStop" />
  <poi x="4380.21611321219" y="7448.098573577398" id="offset_5_190605" color="0,100,178" type="BusStop" />
  <poi x="4380.21611321219" y="7448.098573577398" id="offset_5_190606" color="0,100,178" type="BusStop" />
  <poi x="4380.21611321219" y="7448.098573577398" id="offset_5_190607" color="0,100,178" type="BusStop" />
  <poi x="4380.21611321219" y="7448.098573577398" id="offset_5_190608" color="0,100,178" type="BusStop" />
  <poi x="7042.400000000001" y="2938.09" id="offset_5_19701" color="0,100,178" type="BusStop" />
  <poi x="7037.285716857174" y="2967.2959010405025" id="offset_5_19702" color="0,100,178" type="BusStop" />
  <poi x="6746.778976441898" y="5161.337528247662" id="offset_5_20101" color="0,100,178" type="BusStop" />
  <poi x="6771.464642304654" y="5069.636335294168" id="offset_5_20102" color="0,100,178" type="BusStop" />
  <poi x="7388.276569680469" y="1316.527091670523" id="offset_5_20201" color="0,100,178" type="BusStop" />
  <poi x="7374.077471057395" y="1236.751823839578" id="offset_5_20202" color="0,100,178" type="BusStop" />
  <poi x="4775.326311542472" y="5393.624294548624" id="offset_5_20401" color="0,100,178" type="BusStop" />
  <poi x="4674.380658529182" y="5539.777711767074" id="offset_5_20402" color="0,100,178" type="BusStop" />
  <poi x="2208.4391838264646" y="7642.448660710969" id="offset_5_21401" color="0,100,178" type="BusStop" />
  <poi x="2167.55" y="7660.66" id="offset_5_21402" color="0,100,178" type="BusStop" />
  <poi x="2159.7219641010006" y="6283.327808056799" id="offset_5_21601" color="0,100,178" type="BusStop" />
  <poi x="2152.818163003963" y="6414.811642845453" id="offset_5_21602" color="0,100,178" type="BusStop" />
  <poi x="4144.430660099587" y="6005.911971128755" id="offset_5_23101" color="0,100,178" type="BusStop" />
  <poi x="4164.973353906891" y="6006.467932553291" id="offset_5_23102" color="0,100,178" type="BusStop" />
  <poi x="7557.643500190894" y="4916.984097122317" id="offset_5_23201" color="0,100,178" type="BusStop" />
  <poi x="7683.531603707413" y="4938.4094850374095" id="offset_5_23202" color="0,100,178" type="BusStop" />
  <poi x="7346.8455383139135" y="5368.468820090384" id="offset_5_23301" color="0,100,178" type="BusStop" />
  <poi x="7590.188132672479" y="5387.704937578022" id="offset_5_23302" color="0,100,178" type="BusStop" />
  <poi x="3031.8384050541868" y="5440.029900174944" id="offset_5_2399" color="0,100,178" type="BusStop" />
  <poi x="7650.038685073141" y="1926.7882494590528" id="offset_5_24101" color="0,100,178" type="BusStop" />
  <poi x="7765.461346691026" y="1888.771839473876" id="offset_5_24102" color="0,100,178" type="BusStop" />
  <poi x="7626.338461460726" y="6967.4640795071" id="offset_5_24701" color="0,100,178" type="BusStop" />
  <poi x="7621.076678545654" y="6947.476443879017" id="offset_5_24702" color="0,100,178" type="BusStop" />
  <poi x="7918.519981027513" y="6184.946225947582" id="offset_5_25999" color="0,100,178" type="BusStop" />
  <poi x="8100.891277936074" y="5359.497779119652" id="offset_5_26299" color="0,100,178" type="BusStop" />
  <poi x="10149.65342063554" y="5560.356443553729" id="offset_5_26601" color="0,100,178" type="BusStop" />
  <poi x="10125.71775145958" y="5559.077361657914" id="offset_5_26602" color="0,100,178" type="BusStop" />
  <poi x="4065.4783559519433" y="4856.601054161648" id="offset_5_27801" color="0,100,178" type="BusStop" />
  <poi x="3959.2004440063024" y="4853.091020033076" id="offset_5_27802" color="0,100,178" type="BusStop" />
  <poi x="7281.180571455817" y="2262.863572237856" id="offset_5_28201" color="0,100,178" type="BusStop" />
  <poi x="7347.588522042717" y="2152.2837976641576" id="offset_5_28202" color="0,100,178" type="BusStop" />
  <poi x="5668.963719131293" y="4619.910609879023" id="offset_5_28401" color="0,100,178" type="BusStop" />
  <poi x="5658.491633642141" y="4633.270938534584" id="offset_5_28402" color="0,100,178" type="BusStop" />
  <poi x="3040.3136810046617" y="4287.030118772894" id="offset_5_28601" color="0,100,178" type="BusStop" />
  <poi x="3140.717489528693" y="4260.45938677165" id="offset_5_28602" color="0,100,178" type="BusStop" />
  <poi x="6183.788533149953" y="3364.041507417364" id="offset_5_28701" color="0,100,178" type="BusStop" />
  <poi x="6186.071063423769" y="3333.977717368529" id="offset_5_28702" color="0,100,178" type="BusStop" />
  <poi x="4515.270117471729" y="4601.213839284363" id="offset_5_29101" color="0,100,178" type="BusStop" />
  <poi x="4538.366937666393" y="4600.531182379846" id="offset_5_29102" color="0,100,178" type="BusStop" />
  <poi x="4037.244853034549" y="5681.5804206093" id="offset_5_30499" color="0,100,178" type="BusStop" />
  <poi x="6370.385005852217" y="5003.777518672329" id="offset_5_30701" color="0,100,178" type="BusStop" />
  <poi x="7158.6305297881445" y="4822.345105779345" id="offset_5_30801" color="0,100,178" type="BusStop" />
  <poi x="7203.001521260384" y="4840.1341243049" id="offset_5_30802" color="0,100,178" type="BusStop" />
  <poi x="5417.323078947163" y="5662.988588305721" id="offset_5_30901" color="0,100,178" type="BusStop" />
  <poi x="7384.335392720792" y="6444.94571851639" id="offset_5_31301" color="0,100,178" type="BusStop" />
  <poi x="7368.992678945871" y="6304.067217989317" id="offset_5_31302" color="0,100,178" type="BusStop" />
  <poi x="4399.007926379366" y="5504.036965298266" id="offset_5_3202" color="0,100,178" type="BusStop" />
  <poi x="4659.940229425978" y="5348.009893513958" id="offset_5_32501" color="0,100,178" type="BusStop" />
  <poi x="1890.081898505212" y="5536.376087026298" id="offset_5_34002" color="0,100,178" type="BusStop" />
  <poi x="2017.0218710078923" y="5599.095168970974" id="offset_5_34098" color="0,100,178" type="BusStop" />
  <poi x="2024.649832949415" y="5583.215294011722" id="offset_5_34099" color="0,100,178" type="BusStop" />
  <poi x="9667.803416490253" y="2959.461138830084" id="offset_5_34101" color="0,100,178" type="BusStop" />
  <poi x="9713.1364985685" y="2977.9491160164725" id="offset_5_34102" color="0,100,178" type="BusStop" />
  <poi x="6717.975394995059" y="6814.653782668988" id="offset_5_3501" color="0,100,178" type="BusStop" />
  <poi x="6771.92332981663" y="6795.530518008992" id="offset_5_3502" color="0,100,178" type="BusStop" />
  <poi x="8402.307079732278" y="3564.8391370454065" id="offset_5_3801" color="0,100,178" type="BusStop" />
  <poi x="8595.982619717252" y="3561.461834204059" id="offset_5_3802" color="0,100,178" type="BusStop" />
  <poi x="4355.093281824666" y="5512.772657389502" id="offset_5_38201" color="0,100,178" type="BusStop" />
  <poi x="2510.3388320023823" y="5035.592583309941" id="offset_5_39001" color="0,100,178" type="BusStop" />
  <poi x="2510.3388320023823" y="5035.592583309941" id="offset_5_39002" color="0,100,178" type="BusStop" />
  <poi x="2249.923022057747" y="5549.234346971258" id="offset_5_3901" color="0,100,178" type="BusStop" />
  <poi x="2195.4784487292586" y="5713.9932204741" id="offset_5_3902" color="0,100,178" type="BusStop" />
  <poi x="2504.380438194735" y="4979.105198940792" id="offset_5_39099" color="0,100,178" type="BusStop" />
  <poi x="7051.749063749127" y="5491.625327131412" id="offset_5_39601" color="0,100,178" type="BusStop" />
  <poi x="7076.738331870783" y="5557.734198899052" id="offset_5_39602" color="0,100,178" type="BusStop" />
  <poi x="9480.137918110277" y="3537.245727469804" id="offset_5_4001" color="0,100,178" type="BusStop" />
  <poi x="9651.440682159864" y="3537.212590152524" id="offset_5_4002" color="0,100,178" type="BusStop" />
  <poi x="9822.106838574968" y="7723.073509235324" id="offset_5_41801" color="0,100,178" type="BusStop" />
  <poi x="5177.833808372129" y="4564.71567169268" id="offset_5_42501" color="0,100,178" type="BusStop" />
  <poi x="5178.609437747445" y="4544.368417961325" id="offset_5_42502" color="0,100,178" type="BusStop" />
  <poi x="4796.2446777800815" y="5675.493845983609" id="offset_5_42601" color="0,100,178" type="BusStop" />
  <poi x="7777.258249492074" y="5388.385866928056" id="offset_5_42701" color="0,100,178" type="BusStop" />
  <poi x="7765.830475742529" y="5335.934259517694" id="offset_5_42702" color="0,100,178" type="BusStop" />
  <poi x="7934.392911835844" y="5409.180901624991" id="offset_5_42704" color="0,100,178" type="BusStop" />
  <poi x="5102.639359321083" y="6024.080200066451" id="offset_5_43001" color="0,100,178" type="BusStop" />
  <poi x="5071.715281219815" y="6081.857279794221" id="offset_5_43002" color="0,100,178" type="BusStop" />
  <poi x="5449.199961402479" y="5633.230353786237" id="offset_5_44302" color="0,100,178" type="BusStop" />
  <poi x="4940.5941868888185" y="6077.817390696826" id="offset_5_44701" color="0,100,178" type="BusStop" />
  <poi x="4847.184364889519" y="6025.16702041962" id="offset_5_44702" color="0,100,178" type="BusStop" />
  <poi x="6706.602954854498" y="6243.058562033221" id="offset_5_44801" color="0,100,178" type="BusStop" />
  <poi x="6619.495198562916" y="6266.498289027403" id="offset_5_44802" color="0,100,178" type="BusStop" />
  <poi x="2259.740375759519" y="5180.751298074979" id="offset_5_46201" color="0,100,178" type="BusStop" />
  <poi x="2233.9089257813" y="5174.816361044675" id="offset_5_46202" color="0,100,178" type="BusStop" />
  <poi x="7011.9003708359205" y="4051.595613341357" id="offset_5_46501" color="0,100,178" type="BusStop" />
  <poi x="6092.555774839416" y="2630.660821232804" id="offset_5_46701" color="0,100,178" type="BusStop" />
  <poi x="6104.931054160401" y="2596.4336629526038" id="offset_5_46702" color="0,100,178" type="BusStop" />
  <poi x="4687.088649941456" y="3975.000594668264" id="offset_5_46801" color="0,100,178" type="BusStop" />
  <poi x="4657.168498819362" y="3923.671098445433" id="offset_5_46802" color="0,100,178" type="BusStop" />
  <poi x="9861.844015971918" y="5493.317845910745" id="offset_5_47301" color="0,100,178" type="BusStop" />
  <poi x="9894.020193364342" y="5512.568072534134" id="offset_5_47302" color="0,100,178" type="BusStop" />
  <poi x="7943.669983756352" y="1807.6171506299004" id="offset_5_5001" color="0,100,178" type="BusStop" />
  <poi x="7927.660724729598" y="1819.7717319937296" id="offset_5_5002" color="0,100,178" type="BusStop" />
  <poi x="4448.16781269163" y="6744.089169557687" id="offset_5_501" color="0,100,178" type="BusStop" />
  <poi x="4496.895035839545" y="6795.119054715617" id="offset_5_502" color="0,100,178" type="BusStop" />
  <poi x="9143.44972007366" y="5160.5741697532685" id="offset_5_50501" color="0,100,178" type="BusStop" />
  <poi x="9232.279979022342" y="5181.360564866217" id="offset_5_50502" color="0,100,178" type="BusStop" />
  <poi x="7203.748101970472" y="1172.2722591190436" id="offset_5_50899" color="0,100,178" type="BusStop" />
  <poi x="6082.20803038084" y="2109.0480050634733" id="offset_5_51201" color="0,100,178" type="BusStop" />
  <poi x="5978.239027763693" y="2108.731402749436" id="offset_5_51202" color="0,100,178" type="BusStop" />
  <poi x="5790.8340312459095" y="2996.1665386610425" id="offset_5_51601" color="0,100,178" type="BusStop" />
  <poi x="5813.957630459615" y="3000.832386657534" id="offset_5_51602" color="0,100,178" type="BusStop" />
  <poi x="8751.87016421931" y="2710.8688066151385" id="offset_5_51901" color="0,100,178" type="BusStop" />
  <poi x="8791.740153396575" y="2702.818504646496" id="offset_5_51902" color="0,100,178" type="BusStop" />
  <poi x="4863.6594472507" y="5646.085321493646" id="offset_5_52602" color="0,100,178" type="BusStop" />
  <poi x="9864.78288131214" y="1255.3129210394625" id="offset_5_53999" color="0,100,178" type="BusStop" />
  <poi x="6258.541444282632" y="5433.101506604285" id="offset_5_54393" color="0,100,178" type="BusStop" />
  <poi x="6289.2226933512175" y="5441.346321314736" id="offset_5_54395" color="0,100,178" type="BusStop" />
  <poi x="6309.776394195618" y="5415.743086145351" id="offset_5_54396" color="0,100,178" type="BusStop" />
  <poi x="6304.204202486048" y="5418.437009509829" id="offset_5_54397" color="0,100,178" type="BusStop" />
  <poi x="6301.222415297577" y="5428.803972991913" id="offset_5_54398" color="0,100,178" type="BusStop" />
  <poi x="6293.681829407123" y="5392.333380234794" id="offset_5_54399" color="0,100,178" type="BusStop" />
  <poi x="4416.812455873934" y="6284.479681370628" id="offset_5_54401" color="0,100,178" type="BusStop" />
  <poi x="4422.237342543699" y="6291.93011139186" id="offset_5_54402" color="0,100,178" type="BusStop" />
  <poi x="6593.8172895769485" y="5270.631002939003" id="offset_5_54702" color="0,100,178" type="BusStop" />
  <poi x="6741.717658674375" y="5976.246898894684" id="offset_5_55101" color="0,100,178" type="BusStop" />
  <poi x="6769.957286766053" y="6117.4382176566905" id="offset_5_55102" color="0,100,178" type="BusStop" />
  <poi x="6959.61274595553" y="7798.520579632608" id="offset_5_55202" color="0,100,178" type="BusStop" />
  <poi x="6321.509116554828" y="1333.1650857618267" id="offset_5_56402" color="0,100,178" type="BusStop" />
  <poi x="2045.384953039643" y="5332.182434358706" id="offset_5_57201" color="0,100,178" type="BusStop" />
  <poi x="2041.5906648197963" y="5316.8811955611" id="offset_5_57202" color="0,100,178" type="BusStop" />
  <poi x="7149.033667016066" y="2637.0165757395685" id="offset_5_57301" color="0,100,178" type="BusStop" />
  <poi x="7243.718354391691" y="2369.3628169239046" id="offset_5_57302" color="0,100,178" type="BusStop" />
  <poi x="7819.350475035442" y="4191.624839409247" id="offset_5_57401" color="0,100,178" type="BusStop" />
  <poi x="7845.399524964558" y="4178.995160590753" id="offset_5_57402" color="0,100,178" type="BusStop" />
  <poi x="7625.701931555334" y="6031.843134472486" id="offset_5_57701" color="0,100,178" type="BusStop" />
  <poi x="7803.804654191796" y="6027.43431445006" id="offset_5_57702" color="0,100,178" type="BusStop" />
  <poi x="7635.989821808328" y="6017.922212379245" id="offset_5_57703" color="0,100,178" type="BusStop" />
  <poi x="3628.107674826965" y="4965.584409023328" id="offset_5_57801" color="0,100,178" type="BusStop" />
  <poi x="3571.145046567125" y="4970.256884212688" id="offset_5_57802" color="0,100,178" type="BusStop" />
  <poi x="6851.880734309313" y="5328.395428078079" id="offset_5_57901" color="0,100,178" type="BusStop" />
  <poi x="6952.41760743022" y="5385.266737618034" id="offset_5_57902" color="0,100,178" type="BusStop" />
  <poi x="4045.750241964296" y="5842.652861178294" id="offset_5_58002" color="0,100,178" type="BusStop" />
  <poi x="7206.28992278389" y="3544.528563321666" id="offset_5_58101" color="0,100,178" type="BusStop" />
  <poi x="7196.388509693171" y="3534.1339997673517" id="offset_5_58102" color="0,100,178" type="BusStop" />
  <poi x="4542.368739122794" y="6029.827443390778" id="offset_5_58401" color="0,100,178" type="BusStop" />
  <poi x="4583.072464716167" y="6059.471540791347" id="offset_5_58402" color="0,100,178" type="BusStop" />
  <poi x="7590.537109043994" y="3435.7572142686063" id="offset_5_59301" color="0,100,178" type="BusStop" />
  <poi x="7689.002627892953" y="3386.381226819152" id="offset_5_59302" color="0,100,178" type="BusStop" />
  <poi x="9684.1" y="1167.72" id="offset_5_59601" color="0,100,178" type="BusStop" />
  <poi x="9661.02170793413" y="1163.4799885990958" id="offset_5_59602" color="0,100,178" type="BusStop" />
  <poi x="6274.761336127867" y="3381.7283165389804" id="offset_5_60601" color="0,100,178" type="BusStop" />
  <poi x="6284.065624995774" y="3384.120753690267" id="offset_5_60602" color="0,100,178" type="BusStop" />
  <poi x="5870.507426069445" y="4246.059840698001" id="offset_5_60701" color="0,100,178" type="BusStop" />
  <poi x="5886.561353645185" y="4251.772238090336" id="offset_5_60702" color="0,100,178" type="BusStop" />