<additional>
  <poi x="6725.393505864091" y="1738.2409313110247" id="101" color="0,0,255" type="BusStop" />
  <poi x="6741.385176396028" y="1722.277951976425" id="102" color="0,0,255" type="BusStop" />
  <poi x="9629.509178080549" y="3325.86173787834" id="103401" color="0,0,255" type="BusStop" />
  <poi x="9632.079571984228" y="3352.913145152135" id="103402" color="0,0,255" type="BusStop" />
  <poi x="3729.408188872299" y="5264.850673981259" id="104201" color="0,0,255" type="BusStop" />
  <poi x="3692.789175983544" y="5277.272168641353" id="104203" color="0,0,255" type="BusStop" />
  <poi x="9164.721113450172" y="2014.434448277736" id="10599" color="0,0,255" type="BusStop" />
  <poi x="7515.293949379761" y="4364.87668503006" id="10801" color="0,0,255" type="BusStop" />
  <poi x="7499.464894987549" y="4213.105945454994" id="10802" color="0,0,255" type="BusStop" />
  <poi x="4795.287702311688" y="4307.58875722488" id="10902" color="0,0,255" type="BusStop" />
  <poi x="6194.686702517753" y="3951.147001586333" id="11001" color="0,0,255" type="BusStop" />
  <poi x="6207.860350897406" y="3957.54351597958" id="11002" color="0,0,255" type="BusStop" />
  <poi x="7409.961195978724" y="3139.202430827413" id="11301" color="0,0,255" type="BusStop" />
  <poi x="7424.207039613209" y="3134.8293373297297" id="11302" color="0,0,255" type="BusStop" />
  <poi x="9415.285189568462" y="2047.9024878262524" id="11499" color="0,0,255" type="BusStop" />
  <poi x="7846.479406637933" y="8378.097731278856" id="118201" color="0,0,255" type="BusStop" />
  <poi x="7855.120799666777" y="8405.866517105538" id="118202" color="0,0,255" type="BusStop" />
  <poi x="4471.692028665317" y="4898.930602055146" id="12601" color="0,0,255" type="BusStop" />
  <poi x="4463.896390142244" y="4891.481187144826" id="12602" color="0,0,255" type="BusStop" />
  <poi x="7441.033137006968" y="1604.9577476589911" id="12701" color="0,0,255" type="BusStop" />
  <poi x="7435.865872603558" y="1581.573553414153" id="12702" color="0,0,255" type="BusStop" />
  <poi x="5611.874854867724" y="4013.406954492613" id="12901" color="0,0,255" type="BusStop" />
  <poi x="5632.867056053664" y="3995.0901751614847" id="12902" color="0,0,255" type="BusStop" />
  <poi x="3653.8068369846856" y="4394.936289482105" id="13201" color="0,0,255" type="BusStop" />
  <poi x="3607.353885385687" y="4372.618040322478" id="13202" color="0,0,255" type="BusStop" />
  <poi x="9554.204165058862" y="7994.55108579027" id="13401" color="0,0,255" type="BusStop" />
  <poi x="9525.632413983149" y="7988.942829003533" id="13402" color="0,0,255" type="BusStop" />
  <poi x="7480.170919173" y="6871.734070395295" id="13501" color="0,0,255" type="BusStop" />
  <poi x="7461.647196122692" y="6862.430092804273" id="13502" color="0,0,255" type="BusStop" />
  <poi x="6535.02" y="1414.33" id="13702" color="0,0,255" type="BusStop" />
  <poi x="3897.688916030661" y="6494.943725367917" id="145901" color="0,0,255" type="BusStop" />
  <poi x="3859.446693220998" y="6513.66307277879" id="145902" color="0,0,255" type="BusStop" />
  <poi x="6281.468618835083" y="4723.31932662566" id="146701" color="0,0,255" type="BusStop" />
  <poi x="6280.669532024439" y="4715.353769329518" id="146702" color="0,0,255" type="BusStop" />
  <poi x="6440.589085008472" y="5906.911177073207" id="147301" color="0,0,255" type="BusStop" />
  <poi x="6443.12264606772" y="5897.304271832255" id="147302" color="0,0,255" type="BusStop" />
  <poi x="2462.7184225296496" y="4581.892145446953" id="14798" color="0,0,255" type="BusStop" />
  <poi x="2469.305696613453" y="4608.325031688772" id="14799" color="0,0,255" type="BusStop" />
  <poi x="9410.65794389464" y="6544.354093526268" id="148199" color="0,0,255" type="BusStop" />
  <poi x="4113.483600872208" y="6350.882166671444" id="148301" color="0,0,255" type="BusStop" />
  <poi x="4104.097085097171" y="6353.104730606655" id="148302" color="0,0,255" type="BusStop" />
  <poi x="8032.687077950998" y="4236.387363540527" id="14899" color="0,0,255" type="BusStop" />
  <poi x="3606.420210276696" y="6693.180294767956" id="149299" color="0,0,255" type="BusStop" />
  <poi x="6803.098917113842" y="3554.455893211506" id="156198" color="0,0,255" type="BusStop" />
  <poi x="6796.546501477346" y="3569.775714953713" id="156199" color="0,0,255" type="BusStop" />
  <poi x="7070.41077064365" y="7234.314238362594" id="156301" color="0,0,255" type="BusStop" />
  <poi x="6962.489901870435" y="7256.7702569313315" id="156302" color="0,0,255" type="BusStop" />
  <poi x="7343.481639920424" y="6997.004995409499" id="156401" color="0,0,255" type="BusStop" />
  <poi x="7341.58" y="6985.91" id="156402" color="0,0,255" type="BusStop" />
  <poi x="6943.583136348078" y="6772.730442218529" id="156501" color="0,0,255" type="BusStop" />
  <poi x="7061.7246878034575" y="6826.891048466663" id="156502" color="0,0,255" type="BusStop" />
  <poi x="6379.174456342474" y="3049.1515530294246" id="157401" color="0,0,255" type="BusStop" />
  <poi x="6406.847355212156" y="3020.55651802421" id="157402" color="0,0,255" type="BusStop" />
  <poi x="3752.728943632859" y="6693.997749837731" id="159401" color="0,0,255" type="BusStop" />
  <poi x="3718.18705586636" y="6768.303779096348" id="159402" color="0,0,255" type="BusStop" />
  <poi x="6898.467160684159" y="4429.942175208101" id="162401" color="0,0,255" type="BusStop" />
  <poi x="6925.958127557299" y="4431.616832786886" id="162402" color="0,0,255" type="BusStop" />
  <poi x="6840.200497159348" y="3838.706473137383" id="162598" color="0,0,255" type="BusStop" />
  <poi x="6896.371052619717" y="3905.5525583555736" id="162599" color="0,0,255" type="BusStop" />
  <poi x="7232.230618687408" y="4360.100540323819" id="162601" color="0,0,255" type="BusStop" />
  <poi x="7196.421364000428" y="4325.607167985844" id="162602" color="0,0,255" type="BusStop" />
  <poi x="7200.701917602355" y="4354.753481259865" id="162603" color="0,0,255" type="BusStop" />
  <poi x="6486.18387270396" y="2627.227959440316" id="164801" color="0,0,255" type="BusStop" />
  <poi x="6572.34" y="2549.06" id="164802" color="0,0,255" type="BusStop" />
  <poi x="6510.7173128693885" y="2614.505035715714" id="164803" color="0,0,255" type="BusStop" />
  <poi x="6038.98" y="3082.85" id="16501" color="0,0,255" type="BusStop" />
  <poi x="6090.822102406176" y="3094.9563413358774" id="16502" color="0,0,255" type="BusStop" />
  <poi x="6414.901407786188" y="5484.343856342997" id="167301" color="0,0,255" type="BusStop" />
  <poi x="6407.605776248053" y="5495.62416105972" id="167302" color="0,0,255" type="BusStop" />
  <poi x="9759.43" y="6829.06" id="167799" color="0,0,255" type="BusStop" />
  <poi x="6704.84527405112" y="4713.286853968518" id="168101" color="0,0,255" type="BusStop" />
  <poi x="6707.67276317208" y="4677.029753557328" id="168102" color="0,0,255" type="BusStop" />
  <poi x="5929.217970792004" y="1867.1590534940071" id="173101" color="0,0,255" type="BusStop" />
  <poi x="5947.660632721459" y="1809.8872348568727" id="173102" color="0,0,255" type="BusStop" />
  <poi x="9220.4" y="2800.93" id="17901" color="0,0,255" type="BusStop" />
  <poi x="9188.485629827426" y="2800.0628490854333" id="17902" color="0,0,255" type="BusStop" />
  <poi x="7610.771203942022" y="2011.8515041672952" id="18001" color="0,0,255" type="BusStop" />
  <poi x="7565.726436068072" y="1999.8501556096885" id="18002" color="0,0,255" type="BusStop" />
  <poi x="2647.3474423155826" y="5572.722901760988" id="180301" color="0,0,255" type="BusStop" />
  <poi x="2701.2725755936062" y="5520.493724354576" id="180302" color="0,0,255" type="BusStop" />
  <poi x="2164.49099272691" y="7105.037630546837" id="180801" color="0,0,255" type="BusStop" />
  <poi x="2182.58" y="7246.89" id="180802" color="0,0,255" type="BusStop" />
  <poi x="6781.231918007731" y="1852.1961755026437" id="181101" color="0,0,255" type="BusStop" />
  <poi x="6770.990079666752" y="1843.8815508910757" id="181102" color="0,0,255" type="BusStop" />
  <poi x="5159.208012556832" y="5807.799900299247" id="18301" color="0,0,255" type="BusStop" />
  <poi x="5161.4773030454935" y="5749.7763910626445" id="18302" color="0,0,255" type="BusStop" />
  <poi x="5153.067082367241" y="5651.5929728425135" id="18303" color="0,0,255" type="BusStop" />
  <poi x="5210.506979277597" y="5621.702057978683" id="18304" color="0,0,255" type="BusStop" />
  <poi x="10118.176194405069" y="2554.173468783179" id="184096" color="0,0,255" type="BusStop" />
  <poi x="10096.75094449932" y="2546.380253866016" id="184097" color="0,0,255" type="BusStop" />
  <poi x="10092.78" y="2511.88" id="184099" color="0,0,255" type="BusStop" />
  <poi x="6939.187277690747" y="2297.3464852752045" id="184599" color="0,0,255" type="BusStop" />
  <poi x="2435.023929513348" y="6885.117232979812" id="184601" color="0,0,255" type="BusStop" />
  <poi x="2482.1038991675946" y="6865.3334856421925" id="184602" color="0,0,255" type="BusStop" />
  <poi x="1682.4680465710037" y="8186.682058488491" id="184901" color="0,0,255" type="BusStop" />
  <poi x="1676.3203866466542" y="8185.854300797688" id="184902" color="0,0,255" type="BusStop" />
  <poi x="5633.410889979272" y="6398.178031565887" id="185001" color="0,0,255" type="BusStop" />
  <poi x="5624.835148005152" y="6405.256711631043" id="185002" color="0,0,255" type="BusStop" />
  <poi x="6482.632439565253" y="1723.8855635151365" id="18501" color="0,0,255" type="BusStop" />
  <poi x="6458.741472522896" y="1714.594440012146" id="18502" color="0,0,255" type="BusStop" />
  <poi x="5244.073098024859" y="6587.612599867346" id="185101" color="0,0,255" type="BusStop" />
  <poi x="5241.904396235684" y="6600.413912575711" id="185102" color="0,0,255" type="BusStop" />
  <poi x="4864.110102397491" y="7609.701590880432" id="185301" color="0,0,255" type="BusStop" />
  <poi x="4871.65285615728" y="7609.918313411817" id="185302" color="0,0,255" type="BusStop" />
  <poi x="7610.14" y="7539.26" id="185699" color="0,0,255" type="BusStop" />
  <poi x="7238.993765211068" y="6055.723276657853" id="18601" color="0,0,255" type="BusStop" />
  <poi x="7236.93565741476" y="6043.745793778125" id="18602" color="0,0,255" type="BusStop" />
  <poi x="8559.406816640807" y="1187.286522370368" id="186301" color="0,0,255" type="BusStop" />
  <poi x="8668.075248702577" y="1264.2768645173442" id="186302" color="0,0,255" type="BusStop" />
  <poi x="8767.828473727828" y="1394.696044597342" id="186501" color="0,0,255" type="BusStop" />
  <poi x="8730.00749211629" y="1416.531268329201" id="186502" color="0,0,255" type="BusStop" />
  <poi x="8296.144504839534" y="1637.2930140411893" id="186601" color="0,0,255" type="BusStop" />
  <poi x="8327.219692857476" y="1629.781927617799" id="186602" color="0,0,255" type="BusStop" />
  <poi x="7010.178173971943" y="3373.755738558659" id="18701" color="0,0,255" type="BusStop" />
  <poi x="7028.0986958177" y="3367.1313871470816" id="18702" color="0,0,255" type="BusStop" />
  <poi x="2713.4529307195653" y="6754.760163170044" id="187401" color="0,0,255" type="BusStop" />
  <poi x="2708.664541323641" y="6751.473651179177" id="187402" color="0,0,255" type="BusStop" />
  <poi x="4482.644338642093" y="7566.97983757105" id="188401" color="0,0,255" type="BusStop" />
  <poi x="4482.148706239539" y="7574.095086769941" id="188402" color="0,0,255" type="BusStop" />
  <poi x="4531.712225976446" y="7692.272411207793" id="188501" color="0,0,255" type="BusStop" />
  <poi x="4531.028431395523" y="7682.36611907516" id="188502" color="0,0,255" type="BusStop" />
  <poi x="4532.344584213296" y="7229.885506067393" id="188601" color="0,0,255" type="BusStop" />
  <poi x="4524.508519953375" y="7231.063400666077" id="188602" color="0,0,255" type="BusStop" />
  <poi x="1656.8776023151313" y="5862.695606321848" id="189199" color="0,0,255" type="BusStop" />
  <poi x="1644.434401654535" y="5489.24059896539" id="189299" color="0,0,255" type="BusStop" />
  <poi x="9471.373459489749" y="6718.045416499185" id="189799" color="0,0,255" type="BusStop" />
  <poi x="7288.648648856564" y="7990.087587945865" id="190101" color="0,0,255" type="BusStop" />
  <poi x="7182.308981875341" y="7957.4216425059985" id="190102" color="0,0,255" type="BusStop" />
  <poi x="4309.117531459099" y="7487.314224084779" id="190601" color="0,0,255" type="BusStop" />
  <poi x="4328.002646133445" y="7477.430959525584" id="190602" color="0,0,255" type="BusStop" />
  <poi x="4345.185413561899" y="7468.147996448008" id="190603" color="0,0,255" type="BusStop" />
  <poi x="4360.714130669539" y="7459.758631454704" id="190604" color="0,0,255" type="BusStop" />
  <poi x="4365.500284261637" y="7434.252798509746" id="190605" color="0,0,255" type="BusStop" />
  <poi x="4347.1167328254605" y="7443.414492490308" id="190606" color="0,0,255" type="BusStop" />
  <poi x="4329.359689958191" y="7452.263957367347" id="190607" color="0,0,255" type="BusStop" />
  <poi x="4313.535873532116" y="7460.149972439224" id="190608" color="0,0,255" type="BusStop" />
  <poi x="7058.1558498620525" y="2882.1986060180952" id="19701" color="0,0,255" type="BusStop" />
  <poi x="7032.793122593848" y="2983.390642317862" id="19702" color="0,0,255" type="BusStop" />
  <poi x="6758.616450658541" y="5089.0201557484925" id="20101" color="0,0,255" type="BusStop" />
  <poi x="6763.656569863506" y="5118.121653641228" id="20102" color="0,0,255" type="BusStop" />
  <poi x="7374.554076571781" y="1251.5463558839242" id="20201" color="0,0,255" type="BusStop" />
  <poi x="7382.503632382206" y="1269.7634082506338" id="20202" color="0,0,255" type="BusStop" />
  <poi x="4710.239754770918" y="5474.871840689488" id="20401" color="0,0,255" type="BusStop" />
  <poi x="4712.419054151987" y="5464.891895419819" id="20402" color="0,0,255" type="BusStop" />
  <poi x="2195.276345960239" y="7652.395360453893" id="21401" color="0,0,255" type="BusStop" />
  <poi x="2163.7" y="7662.09" id="21402" color="0,0,255" type="BusStop" />
  <poi x="2158.0900163504343" y="6338.423644074954" id="21601" color="0,0,255" type="BusStop" />
  <poi x="2152.69" y="6419.81" id="21602" color="0,0,255" type="BusStop" />
  <poi x="4147.85" y="6009.56" id="23101" color="0,0,255" type="BusStop" />
  <poi x="4172.342558634639" y="6000.87710777688" id="23102" color="0,0,255" type="BusStop" />
  <poi x="7560.189932288632" y="4917.247314848943" id="23201" color="0,0,255" type="BusStop" />
  <poi x="7584.671744476479" y="4923.276811602277" id="23202" color="0,0,255" type="BusStop" />
  <poi x="7415.246533009583" y="5368.1924060656365" id="23301" color="0,0,255" type="BusStop" />
  <poi x="7424.717714499798" y="5378.255688414301" id="23302" color="0,0,255" type="BusStop" />
  <poi x="3031.87" y="5435.03" id="2399" color="0,0,255" type="BusStop" />
  <poi x="7727.326491371691" y="1899.0051023665796" id="24101" color="0,0,255" type="BusStop" />
  <poi x="7707.130008994536" y="1909.72320184361" id="24102" color="0,0,255" type="BusStop" />
  <poi x="7625.83" y="6962.49" id="24701" color="0,0,255" type="BusStop" />
  <poi x="7620.99482386104" y="6946.690695948312" id="24702" color="0,0,255" type="BusStop" />
  <poi x="7913.52" y="6184.96" id="25999" color="0,0,255" type="BusStop" />
  <poi x="8101.05052099591" y="5357.61449962688" id="26299" color="0,0,255" type="BusStop" />
  <poi x="10174.082948035448" y="5564.962720902869" id="26601" color="0,0,255" type="BusStop" />
  <poi x="10130.63" y="5560.01" id="26602" color="0,0,255" type="BusStop" />
  <poi x="4058.180572353685" y="4856.178615345977" id="27801" color="0,0,255" type="BusStop" />
  <poi x="3979.930748408483" y="4851.807517250479" id="27802" color="0,0,255" type="BusStop" />
  <poi x="7306.193908275742" y="2204.979981613448" id="28201" color="0,0,255" type="BusStop" />
  <poi x="7346.304845639376" y="2153.751678753179" id="28202" color="0,0,255" type="BusStop" />
  <poi x="5671.3" y="4615.49" id="28401" color="0,0,255" type="BusStop" />
  <poi x="5656.538555244469" y="4637.07933514898" id="28402" color="0,0,255" type="BusStop" />
  <poi x="3044.491207978643" y="4285.969756390659" id="28601" color="0,0,255" type="BusStop" />
  <poi x="3137.891720497338" y="4260.830236311809" id="28602" color="0,0,255" type="BusStop" />
  <poi x="6183.779212162956" y="3363.73164757937" id="28701" color="0,0,255" type="BusStop" />
  <poi x="6186.6935795468335" y="3354.138108154014" id="28702" color="0,0,255" type="BusStop" />
  <poi x="4489.487641681008" y="4597.440487355008" id="29101" color="0,0,255" type="BusStop" />
  <poi x="4553.317776790239" y="4601.614007154622" id="29102" color="0,0,255" type="BusStop" />
  <poi x="4037.205033271336" y="5684.650162355189" id="30499" color="0,0,255" type="BusStop" />
  <poi x="6408.076509235857" y="5038.892603100455" id="30701" color="0,0,255" type="BusStop" />
  <poi x="7181.016361529355" y="4829.357587790496" id="30801" color="0,0,255" type="BusStop" />
  <poi x="7184.265576323943" y="4833.824031806477" id="30802" color="0,0,255" type="BusStop" />
  <poi x="5416.754569947139" y="5662.947387372574" id="30901" color="0,0,255" type="BusStop" />
  <poi x="7382.484008066583" y="6431.109063455386" id="31301" color="0,0,255" type="BusStop" />
  <poi x="7383.728864185747" y="6415.991285752137" id="31302" color="0,0,255" type="BusStop" />
  <poi x="4413.120309394708" y="5509.89521124977" id="3202" color="0,0,255" type="BusStop" />
  <poi x="4659.415542626889" y="5349.144443540559" id="32501" color="0,0,255" type="BusStop" />
  <poi x="1989.0318239524577" y="5545.0297184443725" id="34002" color="0,0,255" type="BusStop" />
  <poi x="2015.725742452095" y="5603.862102027651" id="34098" color="0,0,255" type="BusStop" />
  <poi x="2025.6114955645444" y="5579.673528207119" id="34099" color="0,0,255" type="BusStop" />
  <poi x="9691.577419939398" y="2967.3858066464663" id="34101" color="0,0,255" type="BusStop" />
  <poi x="9693.394045610605" y="2971.36947687703" id="34102" color="0,0,255" type="BusStop" />
  <poi x="6747.742572653868" y="6800.986580318513" id="3501" color="0,0,255" type="BusStop" />
  <poi x="6768.954980941475" y="6796.554483318639" id="3502" color="0,0,255" type="BusStop" />
  <poi x="8545.11362432133" y="3559.9562155290314" id="3801" color="0,0,255" type="BusStop" />
  <poi x="8583.189326193416" y="3561.87612976645" id="3802" color="0,0,255" type="BusStop" />
  <poi x="4356.01225827798" y="5513.013452485496" id="38201" color="0,0,255" type="BusStop" />
  <poi x="2510.99" y="5040.55" id="39001" color="0,0,255" type="BusStop" />
  <poi x="2507.760339369861" y="5015.608806802618" id="39002" color="0,0,255" type="BusStop" />
  <poi x="2201.284830063093" y="5700.233697161764" id="3901" color="0,0,255" type="BusStop" />
  <poi x="2194.57" y="5718.91" id="3902" color="0,0,255" type="BusStop" />
  <poi x="2504.563532243209" y="4981.44805543862" id="39099" color="0,0,255" type="BusStop" />
  <poi x="7049.19" y="5487.33" id="39601" color="0,0,255" type="BusStop" />
  <poi x="7053.949735424228" y="5519.128386227952" id="39602" color="0,0,255" type="BusStop" />
  <poi x="9557.82814311102" y="3535.5579294782" id="4001" color="0,0,255" type="BusStop" />
  <poi x="9564.702517633496" y="3538.6455292988194" id="4002" color="0,0,255" type="BusStop" />
  <poi x="9825.627316345028" y="7718.043018576302" id="41801" color="0,0,255" type="BusStop" />
  <poi x="5178.43" y="4569.68" id="42501" color="0,0,255" type="BusStop" />
  <poi x="5179.534287195206" y="4552.052964369473" id="42502" color="0,0,255" type="BusStop" />
  <poi x="4779.770504584265" y="5673.630631819692" id="42601" color="0,0,255" type="BusStop" />
  <poi x="7773.006824425843" y="5387.988016571496" id="42701" color="0,0,255" type="BusStop" />
  <poi x="7765.781612794006" y="5336.953088459304" id="42702" color="0,0,255" type="BusStop" />
  <poi x="7917.746011543891" y="5407.982231249209" id="42704" color="0,0,255" type="BusStop" />
  <poi x="5088.264256198241" y="6065.684756404338" id="43001" color="0,0,255" type="BusStop" />
  <poi x="5089.58325908005" y="6033.07232148909" id="43002" color="0,0,255" type="BusStop" />
  <poi x="5464.647632044655" y="5633.497452639689" id="44302" color="0,0,255" type="BusStop" />
  <poi x="4880.459463527865" y="6045.223295429408" id="44701" color="0,0,255" type="BusStop" />
  <poi x="4859.2367067658615" y="6030.767480694969" id="44702" color="0,0,255" type="BusStop" />
  <poi x="6710.19638144955" y="6242.713040245236" id="44801" color="0,0,255" type="BusStop" />
  <poi x="6615.55" y="6269.57" id="44802" color="0,0,255" type="BusStop" />
  <poi x="2246.912010270384" y="5180.949189716119" id="46201" color="0,0,255" type="BusStop" />
  <poi x="2243.2269234376413" y="5174.62317803195" id="46202" color="0,0,255" type="BusStop" />
  <poi x="7061.286890639333" y="4091.045595686497" id="46501" color="0,0,255" type="BusStop" />
  <poi x="6097.021014936043" y="2614.019471201046" id="46701" color="0,0,255" type="BusStop" />
  <poi x="6105.629358588823" y="2593.794482980482" id="46702" color="0,0,255" type="BusStop" />
  <poi x="4687.694691757145" y="3976.195715297169" id="46801" color="0,0,255" type="BusStop" />
  <poi x="4668.356663273467" y="3936.832713008732" id="46802" color="0,0,255" type="BusStop" />
  <poi x="9871.496067200744" y="5498.902377634921" id="47301" color="0,0,255" type="BusStop" />
  <poi x="9898.76" y="5514.16" id="47302" color="0,0,255" type="BusStop" />
  <poi x="8009.892635823926" y="1769.5595251340694" id="5001" color="0,0,255" type="BusStop" />
  <poi x="7901.716762363429" y="1832.640003701414" id="5002" color="0,0,255" type="BusStop" />
  <poi x="4451.18" y="6748.08" id="501" color="0,0,255" type="BusStop" />
  <poi x="4494.09" y="6790.98" id="502" color="0,0,255" type="BusStop" />
  <poi x="9146.241012673529" y="5159.911154864879" id="50501" color="0,0,255" type="BusStop" />
  <poi x="9232.896941707482" y="5181.53073256334" id="50502" color="0,0,255" type="BusStop" />
  <poi x="7203.346893195082" y="1173.487755527327" id="50899" color="0,0,255" type="BusStop" />
  <poi x="6084.387960952508" y="2109.4113268254177" id="51201" color="0,0,255" type="BusStop" />
  <poi x="6031.988574278929" y="2107.671285111366" id="51202" color="0,0,255" type="BusStop" />
  <poi x="5786.334852867031" y="2994.674897311711" id="51601" color="0,0,255" type="BusStop" />
  <poi x="5813.703958414796" y="3000.739917778027" id="51602" color="0,0,255" type="BusStop" />
  <poi x="8757.959196753854" y="2707.256316782175" id="51901" color="0,0,255" type="BusStop" />
  <poi x="8788.093783783661" y="2705.0017335960174" id="51902" color="0,0,255" type="BusStop" />
  <poi x="4865.335901526934" y="5645.976229515512" id="52602" color="0,0,255" type="BusStop" />
  <poi x="9933.994815042544" y="1263.120702459791" id="53999" color="0,0,255" type="BusStop" />
  <poi x="6257.365274106364" y="5432.305878728668" id="54393" color="0,0,255" type="BusStop" />
  <poi x="6289.22813873792" y="5441.337933957366" id="54395" color="0,0,255" type="BusStop" />
  <poi x="6311.813651337296" y="5412.6066577086285" id="54396" color="0,0,255" type="BusStop" />
  <poi x="6301.45" y="5422.61" id="54397" color="0,0,255" type="BusStop" />
  <poi x="6302.169619604615" y="5427.356318336711" id="54398" color="0,0,255" type="BusStop" />
  <poi x="6297.84" y="5395.11" id="54399" color="0,0,255" type="BusStop" />
  <poi x="4414.54537132765" y="6282.976831709335" id="54401" color="0,0,255" type="BusStop" />
  <poi x="4424.984696464858" y="6293.758237873232" id="54402" color="0,0,255" type="BusStop" />
  <poi x="6585.0990013568" y="5261.822153678192" id="54702" color="0,0,255" type="BusStop" />
  <poi x="6742.484886178022" y="5979.38445558065" id="55101" color="0,0,255" type="BusStop" />
  <poi x="6766.168145376364" y="6090.351968238786" id="55102" color="0,0,255" type="BusStop" />
  <poi x="6963.821563935288" y="7801.068569274122" id="55202" color="0,0,255" type="BusStop" />
  <poi x="6321.329220014338" y="1333.4297312505837" id="56402" color="0,0,255" type="BusStop" />
  <poi x="2045.372855105899" y="5331.962767246923" id="57201" color="0,0,255" type="BusStop" />
  <poi x="2041.7" y="5321.88" id="57202" color="0,0,255" type="BusStop" />
  <poi x="7192.806996237726" y="2519.190098855921" id="57301" color="0,0,255" type="BusStop" />
  <poi x="7236.32109928065" y="2390.6438299830183" id="57302" color="0,0,255" type="BusStop" />
  <poi x="7815.12" y="4194.29" id="57401" color="0,0,255" type="BusStop" />
  <poi x="7826.0916369028" y="4191.158953526947" id="57402" color="0,0,255" type="BusStop" />
  <poi x="7625.44" y="6026.85" id="57701" color="0,0,255" type="BusStop" />
  <poi x="7682.757434567382" y="6022.207822203924" id="57702" color="0,0,255" type="BusStop" />
  <poi x="7661.388916594637" y="6018.136651265808" id="57703" color="0,0,255" type="BusStop" />
  <poi x="3631.626480105357" y="4964.408777528019" id="57801" color="0,0,255" type="BusStop" />
  <poi x="3580.186586627945" y="4966.827678280029" id="57802" color="0,0,255" type="BusStop" />
  <poi x="6852.569140538881" y="5328.569200524377" id="57901" color="0,0,255" type="BusStop" />
  <poi x="6910.308052344448" y="5362.751014816381" id="57902" color="0,0,255" type="BusStop" />
  <poi x="4046.037415528587" y="5845.397880548713" id="58002" color="0,0,255" type="BusStop" />
  <poi x="7203.77" y="3540.21" id="58101" color="0,0,255" type="BusStop" />
  <poi x="7198.98" y="3538.41" id="58102" color="0,0,255" type="BusStop" />
  <poi x="4545.202336693329" y="6031.847622790797" id="58401" color="0,0,255" type="BusStop" />
  <poi x="4579.3" y="6056.19" id="58402" color="0,0,255" type="BusStop" />
  <poi x="7613.742067365806" y="3420.612115745224" id="59301" color="0,0,255" type="BusStop" />
  <poi x="7676.877665432949" y="3394.798048389288" id="59302" color="0,0,255" type="BusStop" />
  <poi x="9681.21" y="1166.27" id="59601" color="0,0,255" type="BusStop" />
  <poi x="9606.775925005017" y="1152.193601571215" id="59602" color="0,0,255" type="BusStop" />
  <poi x="6273.3" y="3386.51" id="60601" color="0,0,255" type="BusStop" />
  <poi x="6285.53" y="3379.34" id="60602" color="0,0,255" type="BusStop" />
  <poi x="5874.82" y="4248.59" id="60701" color="0,0,255" type="BusStop" />
  <poi x="5882.25" y="4249.24" id="60702" color="0,0,255" type="BusStop" />
  <poi x="5824.69" y="4238.5" id="60705" color="0,0,255" type="BusStop" />
  <poi x="5826.45" y="4248.56" id="60706" color="0,0,255" type="BusStop" />
  <poi x="6114.471189931196" y="5091.35723971149" id="61201" color="0,0,255" type="BusStop" />
  <poi x="6116.301460621522" y="5101.414285145532" id="61202" color="0,0,255" type="BusStop" />
  <poi x="7877.477298714679" y="5008.511772878681" id="61301" color="0,0,255" type="BusStop" />
  <poi x="7887.138009872491" y="5016.31176387324" id="61302" color="0,0,255" type="BusStop" />
  <poi x="4369.591934559372" y="5309.416438281503" id="62601" color="0,0,255" type="BusStop" />
  <poi x="3832.464978602254" y="5425.703031353459" id="62901" color="0,0,255" type="BusStop" />
  <poi x="4095.403399090114" y="5417.897599121789" id="62902" color="0,0,255" type="BusStop" />
  <poi x="8405.265353508365" y="1381.287349964318" id="63301" color="0,0,255" type="BusStop" />
  <poi x="8357.512806606199" y="1353.1291834847889" id="63302" color="0,0,255" type="BusStop" />
  <poi x="9293.59444489924" y="1461.5322246776936" id="63401" color="0,0,255" type="BusStop" />
  <poi x="9305.484847633335" y="1445.0229460042003" id="63402" color="0,0,255" type="BusStop" />
  <poi x="9350.782354924228" y="1557.4320457867757" id="63403" color="0,0,255" type="BusStop" />
  <poi x="3312.34" y="4785.27" id="64001" color="0,0,255" type="BusStop" />
  <poi x="3315.55" y="4781.27" id="64002" color="0,0,255" type="BusStop" />
  <poi x="6944.742753326523" y="3280.0123225671487" id="6401" color="0,0,255" type="BusStop" />
  <poi x="6964.080690274244" y="3224.4839241852337" id="6402" color="0,0,255" type="BusStop" />
  <poi x="8700.54551467429" y="5087.329643928862" id="64301" color="0,0,255" type="BusStop" />
  <poi x="8622.12604312852" y="5074.049731668469" id="64302" color="0,0,255" type="BusStop" />
  <poi x="5190.203596865238" y="5437.356149926255" id="64501" color="0,0,255" type="BusStop" />
  <poi x="5195.333361463653" y="5414.733179424527" id="64502" color="0,0,255" type="BusStop" />
  <poi x="6882.840396365484" y="1365.386300390316" id="64801" color="0,0,255" type="BusStop" />
  <poi x="6925.63767385013" y="1299.543422360276" id="64802" color="0,0,255" type="BusStop" />
  <poi x="7994.110296980128" y="5996.670184634589" id="64901" color="0,0,255" type="BusStop" />
  <poi x="7968.05" y="6032.52" id="64999" color="0,0,255" type="BusStop" />
  <poi x="4822.220651221873" y="6572.192590459905" id="6501" color="0,0,255" type="BusStop" />
  <poi x="4821.010438828823" y="6590.491795900676" id="6502" color="0,0,255" type="BusStop" />
  <poi x="7488.582645574377" y="2737.098918020988" id="65501" color="0,0,255" type="BusStop" />
  <poi x="7493.020615413618" y="2717.24255596116" id="65502" color="0,0,255" type="BusStop" />
  <poi x="2490.67" y="5326.64" id="65901" color="0,0,255" type="BusStop" />
  <poi x="2451.328016716544" y="5353.735490071222" id="65902" color="0,0,255" type="BusStop" />
  <poi x="9576.61853945972" y="5325.215557097005" id="67101" color="0,0,255" type="BusStop" />
  <poi x="9617.342702639708" y="5343.091292001196" id="67102" color="0,0,255" type="BusStop" />
  <poi x="7921.194603464246" y="7089.30422422106" id="67201" color="0,0,255" type="BusStop" />
  <poi x="7907.502528367888" y="7082.121161236191" id="67202" color="0,0,255" type="BusStop" />
  <poi x="4983.64" y="6293.73" id="67301" color="0,0,255" type="BusStop" />
  <poi x="4956.31" y="6320.23" id="67302" color="0,0,255" type="BusStop" />
  <poi x="2144.367743407625" y="4037.697590602632" id="67701" color="0,0,255" type="BusStop" />
  <poi x="2122.7665358973927" y="4024.1924595271553" id="67702" color="0,0,255" type="BusStop" />
  <poi x="6234.85562214422" y="4350.148012748809" id="68801" color="0,0,255" type="BusStop" />